geometry optimzed in LAMMPS
_audit_creation_date              2020-11-30 
_audit_creation_method            'lammps2cif' 
_symmetry_space_group_name_H-M    'P1' 
_symmetry_Int_Tables_number       1 
_symmetry_cell_setting            triclinic 
loop_ 
_symmetry_equiv_pos_as_xyz 
  x,y,z 
_cell_length_a                    31.59960845 
_cell_length_b                    31.606927010190976 
_cell_length_c                    35.67593578859371 
_cell_angle_alpha                 90.00468784369312 
_cell_angle_beta                  88.98539738123294 
_cell_angle_gamma                 89.90853848641319 
loop_ 
_atom_site_label 
_atom_site_type_symbol 
_atom_site_fract_x 
_atom_site_fract_y 
_atom_site_fract_z 
_atom_site_charge 
C1          C  0.39268844  0.19434963  0.98781132     0.80100
N2          N  0.42290973  0.22441173  0.48243283    -0.78200
C3          C  0.46453646  0.21328141  0.48039055     0.82600
N4          N  0.47558694  0.17172608  0.48266242    -0.78100
C5          C  0.44539111  0.14165960  0.98805279     0.82700
N6          N  0.40416459  0.15321251  0.99128555    -0.79800
C7          C  0.39182250  0.19481891  0.24492367     0.80100
N8          N  0.42208789  0.22530527  0.24528201    -0.78200
C9          C  0.46371442  0.21434873  0.24688967     0.82600
N10         N  0.47482290  0.17273261  0.24767005    -0.78100
C11         C  0.44454222  0.14232408  0.24652303     0.82700
N12         N  0.40321980  0.15352228  0.24534750    -0.79800
C13         C  0.31928371  0.44427538  0.49829920     0.80100
N14         N  0.30776249  0.40309514  0.49562148    -0.78200
C15         C  0.26647507  0.39180880  0.49910638     0.82600
N16         N  0.23633339  0.42213023  0.50385642    -0.78100
C17         C  0.24744521  0.46366901  0.50535642     0.82700
N18         N  0.28907558  0.47456043  0.50315464    -0.79800
C19         C  0.31913222  0.44493925  0.24184067     0.80100
N20         N  0.28870934  0.47528902  0.24024853    -0.78200
C21         C  0.24708043  0.46431241  0.24069989     0.82600
N22         N  0.23609936  0.42272073  0.24234117    -0.78100
C23         C  0.26654765  0.39234601  0.24310316     0.82700
N24         N  0.30792062  0.40359496  0.24301928    -0.79800
O25         O  0.38905161  0.43441653  0.47476560    -0.78600
C26         C  0.48080940  0.47957957  0.38840773     0.82500
O27         O  0.02671026  0.38643805  0.01103282    -0.79700
O28         O  0.07449163  0.02554393  0.47272360    -0.81200
O29         O  0.43508456  0.07284062  0.01194120    -0.81000
O30         O  0.37751213  0.48582160  0.01645241    -0.79600
Zn31       Zn  0.45171652  0.43672479  0.46152806     1.55700
O32         O  0.48699633  0.08273819  0.46973960    -0.81000
Cd33       Cd  0.43784843  0.00900065  0.02440137     1.59700
Cd34       Cd  0.02375058  0.45003107  0.02332926     1.59600
O35         O  0.45256351  0.50105609  0.08029177    -0.81000
O36         O  0.48054719  0.47889524  0.49200446    -1.91500
Cd37       Cd  0.01069714  0.02234941  0.46078090     1.59900
O38         O  0.00889240  0.45809545  0.07957894    -0.80900
O39         O  0.50258686  0.00768721  0.40497735    -0.79600
C40         C  0.00513102  0.36291649  0.48964434     0.82900
C41         C  0.36426632  0.45562608  0.49621725     0.82600
O42         O  0.45959971  0.45155312  0.40637433    -0.78600
C43         C  0.45672153  0.09675952  0.49023108     0.83400
O44         O  0.47524349  0.37753466  0.46988442    -0.78600
C45         C  0.48073159  0.47965311  0.09714249     0.83500
C46         C  0.09825059  0.00409208  0.49406770     0.83900
O47         O  0.08413379  0.47377111  0.01413924    -0.81100
O48         O  0.47443720  0.37862975  0.26558889    -0.78600
C49         C  0.48039689  0.47991336  0.34724123     0.82500
O50         O  0.37718083  0.48644691  0.22160940    -0.79700
O51         O  0.48560849  0.08384864  0.26556080    -0.81200
O52         O  0.08404873  0.47492311  0.21942247    -0.81000
O53         O  0.02678014  0.38779798  0.22370017    -0.79600
Zn54       Zn  0.45115751  0.43766164  0.27481531     1.55700
O55         O  0.07263718  0.02656914  0.26096899    -0.81000
Cd56       Cd  0.02374092  0.45125818  0.21113899     1.59700
Cd57       Cd  0.43748745  0.00948601  0.21198099     1.59600
O58         O  0.00916842  0.45886008  0.15515239    -0.81000
O59         O  0.47992472  0.47977791  0.24346713    -1.91500
Cd60       Cd  0.00902906  0.02349201  0.27408137     1.59900
O61         O  0.45234374  0.50115666  0.15577739    -0.80900
O62         O  0.50139524  0.00860737  0.33005621    -0.79600
C63         C  0.36399073  0.45637188  0.24238834     0.82900
C64         C  0.00477601  0.36420723  0.24536345     0.82600
O65         O  0.45932447  0.45184456  0.32986001    -0.78600
C66         C  0.09723629  0.00520810  0.23960097     0.83400
O67         O  0.38869799  0.43541703  0.26331477    -0.78600
C68         C  0.48075561  0.47988752  0.13825524     0.83500
C69         C  0.45582565  0.09747034  0.24527156     0.83900
O70         O  0.43474795  0.07324282  0.22409091    -0.81100
C71         C  0.06898023  0.26515422  0.48853505     0.80100
N72         N  0.03903497  0.23504529  0.48312158    -0.78200
C73         C  0.49754012  0.24620686  0.48034329     0.82600
N74         N  0.48639248  0.28783110  0.48191182    -0.78100
C75         C  0.01635248  0.31793998  0.48723633     0.82700
N76         N  0.05733662  0.30633131  0.49123285    -0.79800
C77         C  0.06861882  0.26670855  0.24665130     0.80100
N78         N  0.03829779  0.23628002  0.24640638    -0.78200
C79         C  0.49659523  0.24729345  0.24725507     0.82600
N80         N  0.48546494  0.28893077  0.24783406    -0.78100
C81         C  0.01583719  0.31930276  0.24728851     0.82700
N82         N  0.05721317  0.30802461  0.24685203    -0.79800
C83         C  0.14304277  0.01564664  0.49644325     0.80100
N84         N  0.15448305  0.05689721  0.49379437    -0.78200
C85         C  0.19547144  0.06843510  0.49789340     0.82600
N86         N  0.22547081  0.03827644  0.50333877    -0.78100
C87         C  0.21446752  0.49668694  0.50487141     0.82700
N88         N  0.17306410  0.48558504  0.50201122    -0.79800
C89         C  0.14207853  0.01653978  0.23838759     0.80100
N90         N  0.17257353  0.48619885  0.23812240    -0.78200
C91         C  0.21409822  0.49725660  0.23985322     0.82600
N92         N  0.22488100  0.03888983  0.24164944    -0.78100
C93         C  0.19438040  0.06925098  0.24118461     0.82700
N94         N  0.15312878  0.05790552  0.23982227    -0.79800
O95         O  0.20352497  0.20813774  0.40839541    -0.78600
C96         C  0.20685629  0.11339982  0.49667825     0.82500
O97         O  0.13670254  0.27573972  0.01352569    -0.79700
O98         O  0.25210432  0.20256789  0.08193030    -0.81200
O99         O  0.33381979  0.23563703  0.46996572    -0.81000
O100        O  0.25822989  0.25293735  0.40638927    -0.79600
Zn101      Zn  0.18837389  0.20050858  0.46340889     1.55700
O102        O  0.32368191  0.18451457  0.01224307    -0.81000
Cd103      Cd  0.27335982  0.25954471  0.46231043     1.59700
Cd104      Cd  0.20020204  0.27270534  0.02623644     1.59600
O105        O  0.27650747  0.32299006  0.47542375    -0.81000
O106        O  0.22986494  0.22963399  0.49402108    -1.91500
Cd107      Cd  0.25983500  0.18719693  0.02566663     1.59900
O108        O  0.22441653  0.33314682  0.01748759    -0.80900
O109        O  0.23662321  0.12672545  0.01715288    -0.79600
C110        C  0.11385298  0.25394156  0.49171703     0.82900
C111        C  0.23052747  0.23041470  0.39023381     0.82600
O112        O  0.18603185  0.13810445  0.47562033    -0.78600
C113        C  0.34773111  0.20573328  0.49027872     0.83400
O114        O  0.12910847  0.22386386  0.47190102    -0.78600
C115        C  0.25491860  0.34698169  0.49713077     0.83500
C116        C  0.22964428  0.23007145  0.09932866     0.83900
O117        O  0.20717558  0.25745034  0.08246707    -0.81100
O118        O  0.12748629  0.22611515  0.22567859    -0.78600
C119        C  0.23016876  0.23055569  0.14027821     0.82500
O120        O  0.23508646  0.12614663  0.26376410    -0.79700
O121        O  0.33421164  0.23540498  0.22347954    -0.81200
O122        O  0.22544348  0.33465451  0.26486382    -0.81000
O123        O  0.13801682  0.27739192  0.26736122    -0.79600
Zn124      Zn  0.18622555  0.20334487  0.21370981     1.55700
O125        O  0.27670850  0.32236771  0.22246477    -0.81000
Cd126      Cd  0.20225443  0.27467255  0.27651223     1.59700
Cd127      Cd  0.25711138  0.18614739  0.27553026     1.59600
O128        O  0.21254905  0.26119570  0.33255700    -0.81000
O129        O  0.22933211  0.23024373  0.24408947    -1.91500
Cd130      Cd  0.27419516  0.25808727  0.21239155     1.59900
O131        O  0.24679606  0.19911879  0.33189658    -0.80900
O132        O  0.26131252  0.24806223  0.15636450    -0.79600
C133        C  0.20538758  0.11420265  0.24263516     0.82900
C134        C  0.11366486  0.25577287  0.24675186     0.82600
O135        O  0.19965406  0.21340583  0.15854649    -0.78200
C136        C  0.25536825  0.34744509  0.24339185     0.83400
O137        O  0.18431108  0.14025926  0.22307746    -0.78600
C138        C  0.22979514  0.23016974  0.34933597     0.83500
C139        C  0.34684539  0.20572002  0.24463312     0.83900
O140        O  0.32153020  0.18422958  0.26519928    -0.81100
C141        C  0.39268843  0.19434956  0.48781132     0.80100
N142        N  0.42290971  0.22441178  0.98243280    -0.78200
C143        C  0.46453645  0.21328147  0.98039051     0.82600
N144        N  0.47558695  0.17172614  0.98266244    -0.78100
C145        C  0.44539105  0.14165953  0.48805270     0.82700
N146        N  0.40416457  0.15321247  0.49128550    -0.79800
C147        C  0.39182248  0.19481891  0.74492364     0.80100
N148        N  0.42208792  0.22530522  0.74528198    -0.78200
C149        C  0.46371442  0.21434869  0.74688963     0.82600
N150        N  0.47482289  0.17273252  0.74767004    -0.78100
C151        C  0.44454217  0.14232404  0.74652309     0.82700
N152        N  0.40321975  0.15352227  0.74534749    -0.79800
C153        C  0.31928372  0.44427550  0.99829910     0.80100
N154        N  0.30776249  0.40309521  0.99562145    -0.78200
C155        C  0.26647511  0.39180890  0.99910639     0.82600
N156        N  0.23633343  0.42213031  0.00385646    -0.78100
C157        C  0.24744527  0.46366913  0.00535639     0.82700
N158        N  0.28907559  0.47456054  0.00315447    -0.79800
C159        C  0.31913222  0.44493932  0.74184070     0.80100
N160        N  0.28870936  0.47528906  0.74024868    -0.78200
C161        C  0.24708043  0.46431238  0.74069992     0.82600
N162        N  0.23609942  0.42272072  0.74234113    -0.78100
C163        C  0.26654770  0.39234602  0.74310312     0.82700
N164        N  0.30792068  0.40359501  0.74301924    -0.79800
O165        O  0.38905165  0.43441661  0.97476561    -0.78600
C166        C  0.48080942  0.47957958  0.88840773     0.82500
O167        O  0.02671023  0.38643808  0.51103279    -0.79700
O168        O  0.07449161  0.02554406  0.97272353    -0.81200
O169        O  0.43508453  0.07284059  0.51194118    -0.81000
O170        O  0.37751223  0.48582148  0.51645242    -0.79600
Zn171      Zn  0.45171673  0.43672466  0.96152804     1.55700
O172        O  0.48699627  0.08273818  0.96973957    -0.81000
Cd173      Cd  0.43784840  0.00900051  0.52440134     1.59700
Cd174      Cd  0.02375081  0.45003117  0.52332924     1.59600
O175        O  0.45256342  0.50105597  0.58029175    -0.81000
O176        O  0.48054719  0.47889523  0.99200448    -1.91500
Cd177      Cd  0.01069711  0.02234951  0.96078087     1.59900
O178        O  0.00889247  0.45809554  0.57957891    -0.80900
O179        O  0.50258683  0.00768725  0.90497733    -0.79600
C180        C  0.00513110  0.36291651  0.98964430     0.82900
C181        C  0.36426630  0.45562614  0.99621722     0.82600
O182        O  0.45959979  0.45155309  0.90637432    -0.78600
C183        C  0.45672154  0.09675953  0.99023112     0.83400
O184        O  0.47524355  0.37753468  0.96988441    -0.78600
C185        C  0.48073156  0.47965310  0.59714247     0.83500
C186        C  0.09825055  0.00409208  0.99406761     0.83900
O187        O  0.08413385  0.47377128  0.51413944    -0.81100
O188        O  0.47443717  0.37862986  0.76558886    -0.78600
C189        C  0.48039685  0.47991339  0.84724124     0.82500
O190        O  0.37718078  0.48644693  0.72160937    -0.79700
O191        O  0.48560850  0.08384854  0.76556084    -0.81200
O192        O  0.08404872  0.47492305  0.71942250    -0.81000
O193        O  0.02678014  0.38779807  0.72370009    -0.79600
Zn194      Zn  0.45115748  0.43766175  0.77481529     1.55700
O195        O  0.07263716  0.02656916  0.76096896    -0.81000
Cd196      Cd  0.02374089  0.45125829  0.71113896     1.59700
Cd197      Cd  0.43748767  0.00948611  0.71198096     1.59600
O198        O  0.00916839  0.45886013  0.65515237    -0.81000
O199        O  0.47992468  0.47977792  0.74346709    -1.91500
Cd200      Cd  0.00902903  0.02349185  0.77408135     1.59900
O201        O  0.45234386  0.50115675  0.65577737    -0.80900
O202        O  0.50139521  0.00860738  0.83005624    -0.79600
C203        C  0.36399072  0.45637191  0.74238832     0.82900
C204        C  0.00477605  0.36420733  0.74536342     0.82600
O205        O  0.45932438  0.45184463  0.82986004    -0.78600
C206        C  0.09723633  0.00520812  0.73960095     0.83400
O207        O  0.38869797  0.43541709  0.76331474    -0.78600
C208        C  0.48075566  0.47988753  0.63825521     0.83500
C209        C  0.45582559  0.09747029  0.74527170     0.83900
O210        O  0.43474785  0.07324282  0.72409106    -0.81100
C211        C  0.06898020  0.26515427  0.98853504     0.80100
N212        N  0.03903492  0.23504533  0.98312154    -0.78200
C213        C  0.49754010  0.24620695  0.98034325     0.82600
N214        N  0.48639247  0.28783118  0.98191178    -0.78100
C215        C  0.01635248  0.31794004  0.98723628     0.82700
N216        N  0.05733663  0.30633130  0.99123283    -0.79800
C217        C  0.06861885  0.26670852  0.74665125     0.80100
N218        N  0.03829784  0.23628005  0.74640635    -0.78200
C219        C  0.49659522  0.24729340  0.74725505     0.82600
N220        N  0.48546492  0.28893079  0.74783403    -0.78100
C221        C  0.01583722  0.31930277  0.74728846     0.82700
N222        N  0.05721318  0.30802465  0.74685200    -0.79800
C223        C  0.14304274  0.01564664  0.99644322     0.80100
N224        N  0.15448302  0.05689716  0.99379440    -0.78200
C225        C  0.19547140  0.06843509  0.99789344     0.82600
N226        N  0.22547081  0.03827641  0.00333866    -0.78100
C227        C  0.21446751  0.49668692  0.00487144     0.82700
N228        N  0.17306412  0.48558505  0.00201124    -0.79800
C229        C  0.14207854  0.01653986  0.73838756     0.80100
N230        N  0.17257353  0.48619874  0.73812237    -0.78200
C231        C  0.21409826  0.49725651  0.73985320     0.82600
N232        N  0.22488106  0.03888993  0.74164940    -0.78100
C233        C  0.19438039  0.06925105  0.74118455     0.82700
N234        N  0.15312881  0.05790559  0.73982224    -0.79800
O235        O  0.20352500  0.20813786  0.90839541    -0.78600
C236        C  0.20685626  0.11339979  0.99667826     0.82500
O237        O  0.13670254  0.27573966  0.51352570    -0.79700
O238        O  0.25210423  0.20256784  0.58193028    -0.81200
O239        O  0.33381977  0.23563720  0.96996590    -0.81000
O240        O  0.25822994  0.25293747  0.90638925    -0.79600
Zn241      Zn  0.18837387  0.20050869  0.96340886     1.55700
O242        O  0.32368189  0.18451449  0.51224297    -0.81000
Cd243      Cd  0.27335979  0.25954483  0.96231041     1.59700
Cd244      Cd  0.20020201  0.27270543  0.52623641     1.59600
O245        O  0.27650746  0.32299017  0.97542370    -0.81000
O246        O  0.22986495  0.22963401  0.99402107    -1.91500
Cd247      Cd  0.25983498  0.18719702  0.52566661     1.59900
O248        O  0.22441647  0.33314684  0.51748757    -0.80900
O249        O  0.23662320  0.12672553  0.51715288    -0.79600
C250        C  0.11385296  0.25394157  0.99171702     0.82900
C251        C  0.23052753  0.23041475  0.89023381     0.82600
O252        O  0.18603185  0.13810448  0.97562035    -0.78600
C253        C  0.34773109  0.20573338  0.99027885     0.83400
O254        O  0.12910846  0.22386392  0.97190101    -0.78600
C255        C  0.25491859  0.34698175  0.99713077     0.83500
C256        C  0.22964428  0.23007145  0.59932866     0.83900
O257        O  0.20717562  0.25745040  0.58246706    -0.81100
O258        O  0.12748625  0.22611502  0.72567858    -0.78600
C259        C  0.23016872  0.23055563  0.64027823     0.82500
O260        O  0.23508646  0.12614654  0.76376407    -0.79700
O261        O  0.33421164  0.23540506  0.72347952    -0.81200
O262        O  0.22544362  0.33465455  0.76486385    -0.81000
O263        O  0.13801682  0.27739182  0.76736118    -0.79600
Zn264      Zn  0.18622551  0.20334472  0.71370978     1.55700
O265        O  0.27670848  0.32236769  0.72246468    -0.81000
Cd266      Cd  0.20225441  0.27467263  0.77651221     1.59700
Cd267      Cd  0.25711135  0.18614721  0.77553024     1.59600
O268        O  0.21254902  0.26119561  0.83255698    -0.81000
O269        O  0.22933206  0.23024360  0.74408948    -1.91500
Cd270      Cd  0.27419512  0.25808710  0.71239154     1.59900
O271        O  0.24679603  0.19911867  0.83189661    -0.80900
O272        O  0.26131252  0.24806202  0.65636458    -0.79600
C273        C  0.20538757  0.11420266  0.74263515     0.82900
C274        C  0.11366487  0.25577283  0.74675183     0.82600
O275        O  0.19965395  0.21340584  0.65854646    -0.78200
C276        C  0.25536833  0.34744511  0.74339180     0.83400
O277        O  0.18431106  0.14025929  0.72307745    -0.78600
C278        C  0.22979518  0.23016969  0.84933597     0.83500
C279        C  0.34684537  0.20572010  0.74463310     0.83900
O280        O  0.32153017  0.18422966  0.76519924    -0.81100
C281        C  0.39268839  0.69434957  0.98781135     0.80100
N282        N  0.42290963  0.72441177  0.48243283    -0.78200
C283        C  0.46453639  0.71328146  0.48039056     0.82600
N284        N  0.47558686  0.67172615  0.48266243    -0.78100
C285        C  0.44539100  0.64165952  0.98805279     0.82700
N286        N  0.40416446  0.65321246  0.99128554    -0.79800
C287        C  0.39182250  0.69481896  0.24492367     0.80100
N288        N  0.42208796  0.72530524  0.24528201    -0.78200
C289        C  0.46371441  0.71434871  0.24688967     0.82600
N290        N  0.47482292  0.67273253  0.24767005    -0.78100
C291        C  0.44454213  0.64232406  0.24652302     0.82700
N292        N  0.40321978  0.65352229  0.24534750    -0.79800
C293        C  0.31928371  0.94427543  0.49829918     0.80100
N294        N  0.30776241  0.90309520  0.49562147    -0.78200
C295        C  0.26647504  0.89180888  0.49910640     0.82600
N296        N  0.23633336  0.92213033  0.50385643    -0.78100
C297        C  0.24744526  0.96366914  0.50535643     0.82700
N298        N  0.28907558  0.97456052  0.50315464    -0.79800
C299        C  0.31913224  0.94493927  0.24184067     0.80100
N300        N  0.28870938  0.97528904  0.24024852    -0.78200
C301        C  0.24708043  0.96431238  0.24069988     0.82600
N302        N  0.23609941  0.92272072  0.24234118    -0.78100
C303        C  0.26654768  0.89234600  0.24310315     0.82700
N304        N  0.30792068  0.90359499  0.24301928    -0.79800
O305        O  0.38905162  0.93441648  0.47476567    -0.78600
C306        C  0.48080947  0.97957960  0.38840772     0.82500
O307        O  0.02671027  0.88643803  0.01103282    -0.79700
O308        O  0.07449163  0.52554389  0.47272355    -0.81200
O309        O  0.43508447  0.57284051  0.01194113    -0.81000
O310        O  0.37751210  0.98582157  0.01645240    -0.79600
Zn311      Zn  0.45171659  0.93672473  0.46152806     1.55700
O312        O  0.48699621  0.58273821  0.46973960    -0.81000
Cd313      Cd  0.43784851  0.50900056  0.02440137     1.59700
Cd314      Cd  0.02375064  0.95003123  0.02332926     1.59600
O315        O  0.45256342  0.00105598  0.08029178    -0.81000
O316        O  0.48054708  0.97889526  0.49200450    -1.91500
Cd317      Cd  0.01069697  0.52234957  0.46078090     1.59900
O318        O  0.00889245  0.95809554  0.07957893    -0.80900
O319        O  0.50258675  0.50768717  0.40497737    -0.79600
C320        C  0.00513106  0.86291657  0.48964433     0.82900
C321        C  0.36426627  0.95562609  0.49621726     0.82600
O322        O  0.45959985  0.95155314  0.40637434    -0.78600
C323        C  0.45672142  0.59675952  0.49023112     0.83400
O324        O  0.47524360  0.87753480  0.46988442    -0.78600
C325        C  0.48073162  0.97965317  0.09714249     0.83500
C326        C  0.09825063  0.50409205  0.49406770     0.83900
O327        O  0.08413368  0.97377129  0.01413927    -0.81100
O328        O  0.47443720  0.87862984  0.26558895    -0.78600
C329        C  0.48039693  0.97991337  0.34724122     0.82500
O330        O  0.37718084  0.98644695  0.22160946    -0.79700
O331        O  0.48560833  0.58384856  0.26556079    -0.81200
O332        O  0.08404869  0.97492310  0.21942250    -0.81000
O333        O  0.02678014  0.88779811  0.22370018    -0.79600
Zn334      Zn  0.45115734  0.93766156  0.27481533     1.55700
O335        O  0.07263713  0.52656906  0.26096901    -0.81000
Cd336      Cd  0.02374075  0.95125835  0.21113898     1.59700
Cd337      Cd  0.43748751  0.50948616  0.21198099     1.59600
O338        O  0.00916840  0.95886005  0.15515239    -0.81000
O339        O  0.47992463  0.97977788  0.24346717    -1.91500
Cd340      Cd  0.00902912  0.52349193  0.27408138     1.59900
O341        O  0.45234386  0.00115677  0.15577740    -0.80900
O342        O  0.50139522  0.50860738  0.33005625    -0.79600
C343        C  0.36399075  0.95637188  0.24238834     0.82900
C344        C  0.00477603  0.86420732  0.24536343     0.82600
O345        O  0.45932451  0.95184450  0.32986004    -0.78600
C346        C  0.09723629  0.50520807  0.23960097     0.83400
O347        O  0.38869799  0.93541695  0.26331472    -0.78600
C348        C  0.48075565  0.97988752  0.13825524     0.83500
C349        C  0.45582557  0.59747033  0.24527157     0.83900
O350        O  0.43474779  0.57324285  0.22409090    -0.81100
C351        C  0.06898020  0.76515430  0.48853505     0.80100
N352        N  0.03903496  0.73504539  0.48312157    -0.78200
C353        C  0.49754005  0.74620696  0.48034329     0.82600
N354        N  0.48639243  0.78783120  0.48191181    -0.78100
C355        C  0.01635248  0.81794008  0.48723628     0.82700
N356        N  0.05733665  0.80633137  0.49123285    -0.79800
C357        C  0.06861889  0.76670857  0.24665131     0.80100
N358        N  0.03829786  0.73628008  0.24640638    -0.78200
C359        C  0.49659520  0.74729343  0.24725508     0.82600
N360        N  0.48546484  0.78893082  0.24783406    -0.78100
C361        C  0.01583726  0.81930279  0.24728849     0.82700
N362        N  0.05721323  0.80802470  0.24685204    -0.79800
C363        C  0.14304279  0.51564669  0.49644324     0.80100
N364        N  0.15448306  0.55689719  0.49379437    -0.78200
C365        C  0.19547141  0.56843516  0.49789339     0.82600
N366        N  0.22547083  0.53827644  0.50333877    -0.78100
C367        C  0.21446747  0.99668691  0.50487141     0.82700
N368        N  0.17306408  0.98558507  0.50201121    -0.79800
C369        C  0.14207854  0.51653986  0.23838761     0.80100
N370        N  0.17257350  0.98619876  0.23812240    -0.78200
C371        C  0.21409822  0.99725652  0.23985322     0.82600
N372        N  0.22488100  0.53888994  0.24164943    -0.78100
C373        C  0.19438040  0.56925105  0.24118458     0.82700
N374        N  0.15312873  0.55790558  0.23982227    -0.79800
O375        O  0.20352495  0.70813779  0.40839541    -0.78600
C376        C  0.20685627  0.61339984  0.49667826     0.82500
O377        O  0.13670256  0.77573966  0.01352570    -0.79700
O378        O  0.25210409  0.70256780  0.08193030    -0.81200
O379        O  0.33381972  0.73563699  0.46996565    -0.81000
O380        O  0.25822986  0.75293735  0.40638927    -0.79600
Zn381      Zn  0.18837394  0.70050875  0.46340889     1.55700
O382        O  0.32368185  0.68451451  0.01224305    -0.81000
Cd383      Cd  0.27335963  0.75954463  0.46231044     1.59700
Cd384      Cd  0.20020210  0.77270524  0.02623644     1.59600
O385        O  0.27650744  0.82299011  0.47542377    -0.81000
O386        O  0.22986487  0.72963389  0.49402112    -1.91500
Cd387      Cd  0.25983506  0.68719709  0.02566663     1.59900
O388        O  0.22441639  0.83314673  0.01748752    -0.80900
O389        O  0.23662331  0.62672548  0.01715288    -0.79600
C390        C  0.11385298  0.75394158  0.49171705     0.82900
C391        C  0.23052750  0.73041465  0.39023380     0.82600
O392        O  0.18603177  0.63810458  0.47562040    -0.78600
C393        C  0.34773101  0.70573328  0.49027870     0.83400
O394        O  0.12910847  0.72386385  0.47190108    -0.78600
C395        C  0.25491848  0.84698174  0.49713077     0.83500
C396        C  0.22964414  0.73007141  0.09932867     0.83900
O397        O  0.20717565  0.75745047  0.08246708    -0.81100
O398        O  0.12748622  0.72611502  0.22567860    -0.78600
C399        C  0.23016863  0.73055562  0.14027822     0.82500
O400        O  0.23508649  0.62614659  0.26376404    -0.79700
O401        O  0.33421175  0.73540515  0.22347955    -0.81200
O402        O  0.22544355  0.83465453  0.26486387    -0.81000
O403        O  0.13801690  0.77739183  0.26736119    -0.79600
Zn404      Zn  0.18622558  0.70334478  0.21370980     1.55700
O405        O  0.27670841  0.82236765  0.22246472    -0.81000
Cd406      Cd  0.20225451  0.77467270  0.27651224     1.59700
Cd407      Cd  0.25711146  0.68614730  0.27553025     1.59600
O408        O  0.21254914  0.76119562  0.33255698    -0.81000
O409        O  0.22933206  0.73024368  0.24408950    -1.91500
Cd410      Cd  0.27419522  0.75808716  0.21239155     1.59900
O411        O  0.24679615  0.69911868  0.33189658    -0.80900
O412        O  0.26131247  0.74806205  0.15636448    -0.79600
C413        C  0.20538756  0.61420268  0.24263510     0.82900
C414        C  0.11366489  0.75577284  0.24675187     0.82600
O415        O  0.19965392  0.71340578  0.15854650    -0.78200
C416        C  0.25536828  0.84744508  0.24339184     0.83400
O417        O  0.18431110  0.64025927  0.22307740    -0.78600
C418        C  0.22979521  0.73016965  0.34933596     0.83500
C419        C  0.34684545  0.70572017  0.24463313     0.83900
O420        O  0.32153025  0.68422976  0.26519927    -0.81100
C421        C  0.39268836  0.69434957  0.48781133     0.80100
N422        N  0.42290964  0.72441174  0.98243282    -0.78200
C423        C  0.46453643  0.71328139  0.98039052     0.82600
N424        N  0.47558683  0.67172608  0.98266244    -0.78100
C425        C  0.44539101  0.64165956  0.48805271     0.82700
N426        N  0.40416449  0.65321249  0.49128552    -0.79800
C427        C  0.39182247  0.69481893  0.74492364     0.80100
N428        N  0.42208793  0.72530529  0.74528198    -0.78200
C429        C  0.46371439  0.71434874  0.74688963     0.82600
N430        N  0.47482291  0.67273260  0.74767003    -0.78100
C431        C  0.44454214  0.64232408  0.74652305     0.82700
N432        N  0.40321980  0.65352231  0.74534748    -0.79800
C433        C  0.31928368  0.94427540  0.99829910     0.80100
N434        N  0.30776239  0.90309513  0.99562145    -0.78200
C435        C  0.26647504  0.89180881  0.99910638     0.82600
N436        N  0.23633333  0.92213024  0.00385647    -0.78100
C437        C  0.24744524  0.96366906  0.00535639     0.82700
N438        N  0.28907550  0.97456046  0.00315447    -0.79800
C439        C  0.31913224  0.94493927  0.74184070     0.80100
N440        N  0.28870936  0.97528903  0.74024868    -0.78200
C441        C  0.24708046  0.96431242  0.74069992     0.82600
N442        N  0.23609939  0.92272072  0.74234113    -0.78100
C443        C  0.26654768  0.89234602  0.74310313     0.82700
N444        N  0.30792066  0.90359498  0.74301924    -0.79800
O445        O  0.38905159  0.93441658  0.97476560    -0.78600
C446        C  0.48080946  0.97957961  0.88840773     0.82500
O447        O  0.02671027  0.88643809  0.51103277    -0.79700
O448        O  0.07449160  0.52554392  0.97272356    -0.81200
O449        O  0.43508442  0.57284057  0.51194116    -0.81000
O450        O  0.37751210  0.98582159  0.51645235    -0.79600
Zn451      Zn  0.45171656  0.93672480  0.96152804     1.55700
O452        O  0.48699633  0.58273822  0.96973963    -0.81000
Cd453      Cd  0.43784850  0.50900041  0.52440134     1.59700
Cd454      Cd  0.02375064  0.95003107  0.52332924     1.59600
O455        O  0.45256344  0.00105599  0.58029173    -0.81000
O456        O  0.48054706  0.97889526  0.99200449    -1.91500
Cd457      Cd  0.01069695  0.52234943  0.96078087     1.59900
O458        O  0.00889233  0.95809536  0.57957892    -0.80900
O459        O  0.50258686  0.50768714  0.90497734    -0.79600
C460        C  0.00513109  0.86291647  0.98964433     0.82900
C461        C  0.36426624  0.95562612  0.99621723     0.82600
O462        O  0.45959981  0.95155318  0.90637434    -0.78600
C463        C  0.45672147  0.59675949  0.99023112     0.83400
O464        O  0.47524358  0.87753468  0.96988440    -0.78600
C465        C  0.48073159  0.97965311  0.59714246     0.83500
C466        C  0.09825060  0.50409200  0.99406759     0.83900
O467        O  0.08413381  0.97377123  0.51413940    -0.81100
O468        O  0.47443725  0.87862978  0.76558886    -0.78600
C469        C  0.48039693  0.97991337  0.84724123     0.82500
O470        O  0.37718090  0.98644691  0.72160936    -0.79700
O471        O  0.48560841  0.58384859  0.76556090    -0.81200
O472        O  0.08404875  0.97492313  0.71942247    -0.81000
O473        O  0.02678020  0.88779799  0.72370014    -0.79600
Zn474      Zn  0.45115755  0.93766164  0.77481530     1.55700
O475        O  0.07263712  0.52656910  0.76096892    -0.81000
Cd476      Cd  0.02374097  0.95125819  0.71113896     1.59700
Cd477      Cd  0.43748749  0.50948602  0.71198097     1.59600
O478        O  0.00916841  0.95886013  0.65515238    -0.81000
O479        O  0.47992470  0.97977787  0.74346711    -1.91500
Cd480      Cd  0.00902909  0.52349178  0.77408135     1.59900
O481        O  0.45234388  0.00115689  0.65577734    -0.80900
O482        O  0.50139527  0.50860731  0.83005625    -0.79600
C483        C  0.36399077  0.95637189  0.74238833     0.82900
C484        C  0.00477607  0.86420724  0.74536342     0.82600
O485        O  0.45932451  0.95184453  0.82986004    -0.78600
C486        C  0.09723628  0.50520807  0.73960094     0.83400
O487        O  0.38869802  0.93541703  0.76331474    -0.78600
C488        C  0.48075562  0.97988758  0.63825521     0.83500
C489        C  0.45582561  0.59747033  0.74527170     0.83900
O490        O  0.43474788  0.57324279  0.72409104    -0.81100
C491        C  0.06898019  0.76515422  0.98853504     0.80100
N492        N  0.03903496  0.73504530  0.98312155    -0.78200
C493        C  0.49754008  0.74620687  0.98034325     0.82600
N494        N  0.48639253  0.78783110  0.98191178    -0.78100
C495        C  0.01635247  0.81793998  0.98723628     0.82700
N496        N  0.05733663  0.80633129  0.99123282    -0.79800
C497        C  0.06861886  0.76670856  0.74665129     0.80100
N498        N  0.03829783  0.73628003  0.74640636    -0.78200
C499        C  0.49659528  0.74729343  0.74725504     0.82600
N500        N  0.48546494  0.78893077  0.74783403    -0.78100
C501        C  0.01583724  0.81930277  0.74728848     0.82700
N502        N  0.05721323  0.80802463  0.74685201    -0.79800
C503        C  0.14304279  0.51564662  0.99644322     0.80100
N504        N  0.15448305  0.55689718  0.99379439    -0.78200
C505        C  0.19547142  0.56843512  0.99789351     0.82600
N506        N  0.22547081  0.53827645  0.00333883    -0.78100
C507        C  0.21446744  0.99668687  0.00487137     0.82700
N508        N  0.17306407  0.98558501  0.00201125    -0.79800
C509        C  0.14207857  0.51653977  0.73838757     0.80100
N510        N  0.17257358  0.98619885  0.73812237    -0.78200
C511        C  0.21409823  0.99725660  0.73985320     0.82600
N512        N  0.22488106  0.53888981  0.74164941    -0.78100
C513        C  0.19438046  0.56925097  0.74118458     0.82700
N514        N  0.15312884  0.55790550  0.73982225    -0.79800
O515        O  0.20352499  0.70813769  0.90839539    -0.78600
C516        C  0.20685634  0.61339979  0.99667830     0.82500
O517        O  0.13670257  0.77573973  0.51352565    -0.79700
O518        O  0.25210432  0.70256792  0.58193031    -0.81200
O519        O  0.33381981  0.73563712  0.96996589    -0.81000
O520        O  0.25822981  0.75293743  0.90638928    -0.79600
Zn521      Zn  0.18837393  0.70050859  0.96340886     1.55700
O522        O  0.32368180  0.68451456  0.51224299    -0.81000
Cd523      Cd  0.27335985  0.75954472  0.96231042     1.59700
Cd524      Cd  0.20020207  0.77270533  0.52623641     1.59600
O525        O  0.27650744  0.82299006  0.97542375    -0.81000
O526        O  0.22986490  0.72963395  0.99402104    -1.91500
Cd527      Cd  0.25983503  0.68719693  0.52566661     1.59900
O528        O  0.22441637  0.83314682  0.51748751    -0.80900
O529        O  0.23662326  0.62672548  0.51715282    -0.79600
C530        C  0.11385298  0.75394157  0.99171703     0.82900
C531        C  0.23052746  0.73041470  0.89023381     0.82600
O532        O  0.18603192  0.63810444  0.97562034    -0.78600
C533        C  0.34773107  0.70573332  0.99027885     0.83400
O534        O  0.12910847  0.72386388  0.97190101    -0.78600
C535        C  0.25491846  0.84698166  0.99713076     0.83500
C536        C  0.22964423  0.73007146  0.59932866     0.83900
O537        O  0.20717557  0.75745037  0.58246703    -0.81100
O538        O  0.12748619  0.72611509  0.72567851    -0.78600
C539        C  0.23016863  0.73055571  0.64027823     0.82500
O540        O  0.23508653  0.62614664  0.76376407    -0.79700
O541        O  0.33421168  0.73540500  0.72347951    -0.81200
O542        O  0.22544353  0.83465451  0.76486378    -0.81000
O543        O  0.13801687  0.77739174  0.76736122    -0.79600
Zn544      Zn  0.18622555  0.70334488  0.71370977     1.55700
O545        O  0.27670856  0.82236772  0.72246474    -0.81000
Cd546      Cd  0.20225448  0.77467256  0.77651221     1.59700
Cd547      Cd  0.25711143  0.68614740  0.77553023     1.59600
O548        O  0.21254911  0.76119571  0.83255700    -0.81000
O549        O  0.22933205  0.73024375  0.74408944    -1.91500
Cd550      Cd  0.27419520  0.75808727  0.71239154     1.59900
O551        O  0.24679612  0.69911879  0.83189659    -0.80900
O552        O  0.26131241  0.74806216  0.65636456    -0.79600
C553        C  0.20538764  0.61420265  0.74263513     0.82900
C554        C  0.11366486  0.75577280  0.74675183     0.82600
O555        O  0.19965388  0.71340588  0.65854647    -0.78200
C556        C  0.25536831  0.84744510  0.74339181     0.83400
O557        O  0.18431114  0.64025926  0.72307744    -0.78600
C558        C  0.22979518  0.73016974  0.84933598     0.83500
C559        C  0.34684542  0.70572005  0.74463308     0.83900
O560        O  0.32153023  0.68422960  0.76519925    -0.81100
C561        C  0.89268835  0.19434963  0.98781133     0.80100
N562        N  0.92290968  0.22441172  0.48243284    -0.78200
C563        C  0.96453640  0.21328141  0.48039055     0.82600
N564        N  0.97558687  0.17172607  0.48266242    -0.78100
C565        C  0.94539099  0.14165959  0.98805279     0.82700
N566        N  0.90416448  0.15321251  0.99128555    -0.79800
C567        C  0.89182246  0.19481888  0.24492370     0.80100
N568        N  0.92208784  0.22530527  0.24528202    -0.78200
C569        C  0.96371435  0.21434873  0.24688967     0.82600
N570        N  0.97482287  0.17273263  0.24767005    -0.78100
C571        C  0.94454216  0.14232407  0.24652302     0.82700
N572        N  0.90321979  0.15352226  0.24534751    -0.79800
C573        C  0.81928367  0.44427538  0.49829919     0.80100
N574        N  0.80776241  0.40309513  0.49562148    -0.78200
C575        C  0.76647505  0.39180880  0.49910638     0.82600
N576        N  0.73633332  0.42213022  0.50385642    -0.78100
C577        C  0.74744519  0.46366902  0.50535643     0.82700
N578        N  0.78907549  0.47456042  0.50315464    -0.79800
C579        C  0.81913224  0.44493925  0.24184066     0.80100
N580        N  0.78870937  0.47528903  0.24024852    -0.78200
C581        C  0.74708050  0.46431242  0.24069988     0.82600
N582        N  0.73609941  0.42272075  0.24234117    -0.78100
C583        C  0.76654769  0.39234601  0.24310315     0.82700
N584        N  0.80792064  0.40359495  0.24301928    -0.79800
O585        O  0.88905156  0.43441654  0.47476559    -0.78600
C586        C  0.98080944  0.47957959  0.38840772     0.82500
O587        O  0.52671017  0.38643806  0.01103281    -0.79700
O588        O  0.57449167  0.02554393  0.47272358    -0.81200
O589        O  0.93508445  0.07284061  0.01194121    -0.81000
O590        O  0.87751215  0.48582159  0.01645240    -0.79600
Zn591      Zn  0.95171665  0.43672479  0.46152806     1.55700
O592        O  0.98699624  0.08273817  0.46973960    -0.81000
Cd593      Cd  0.93784860  0.00900066  0.02440137     1.59700
Cd594      Cd  0.52375072  0.45003106  0.02332926     1.59600
O595        O  0.95256342  0.50105604  0.08029177    -0.81000
O596        O  0.98054720  0.47889521  0.49200447    -1.91500
Cd597      Cd  0.51069706  0.02234942  0.46078090     1.59900
O598        O  0.50889241  0.45809540  0.07957893    -0.80900
O599        O  0.00258673  0.00768722  0.40497735    -0.79600
C600        C  0.50513101  0.36291650  0.48964433     0.82900
C601        C  0.86426624  0.45562609  0.49621725     0.82600
O602        O  0.95959981  0.45155310  0.40637434    -0.78600
C603        C  0.95672143  0.09675951  0.49023109     0.83400
O604        O  0.97524358  0.37753468  0.46988441    -0.78600
C605        C  0.98073154  0.47965309  0.09714250     0.83500
C606        C  0.59825063  0.00409210  0.49406770     0.83900
O607        O  0.58413375  0.47377118  0.01413924    -0.81100
O608        O  0.97443710  0.37862976  0.26558890    -0.78600
C609        C  0.98039693  0.47991339  0.34724122     0.82500
O610        O  0.87718081  0.48644692  0.22160940    -0.79700
O611        O  0.98560842  0.08384863  0.26556080    -0.81200
O612        O  0.58404875  0.47492310  0.21942247    -0.81000
O613        O  0.52678023  0.38779799  0.22370018    -0.79600
Zn614      Zn  0.95115739  0.43766163  0.27481531     1.55700
O615        O  0.57263716  0.02656914  0.26096898    -0.81000
Cd616      Cd  0.52374084  0.45125818  0.21113898     1.59700
Cd617      Cd  0.93748758  0.00948600  0.21198099     1.59600
O618        O  0.50916849  0.45886014  0.15515239    -0.81000
O619        O  0.97992472  0.47977788  0.24346714    -1.91500
Cd620      Cd  0.50902918  0.02349201  0.27408137     1.59900
O621        O  0.95234379  0.50115673  0.15577739    -0.80900
O622        O  0.00139527  0.00860731  0.33005622    -0.79600
C623        C  0.86399068  0.45637188  0.24238834     0.82900
C624        C  0.50477609  0.36420723  0.24536346     0.82600
O625        O  0.95932454  0.45184455  0.32986000    -0.78600
C626        C  0.59723627  0.00520809  0.23960097     0.83400
O627        O  0.88869789  0.43541703  0.26331478    -0.78600
C628        C  0.98075557  0.47988751  0.13825524     0.83500
C629        C  0.95582564  0.09747036  0.24527155     0.83900
O630        O  0.93474791  0.07324282  0.22409090    -0.81100
C631        C  0.56898021  0.26515422  0.48853506     0.80100
N632        N  0.53903499  0.23504530  0.48312159    -0.78200
C633        C  0.99754013  0.24620684  0.48034329     0.82600
N634        N  0.98639246  0.28783108  0.48191182    -0.78100
C635        C  0.51635244  0.31793998  0.48723631     0.82700
N636        N  0.55733666  0.30633130  0.49123285    -0.79800
C637        C  0.56861887  0.26670855  0.24665129     0.80100
N638        N  0.53829783  0.23628001  0.24640638    -0.78200
C639        C  0.99659515  0.24729345  0.24725507     0.82600
N640        N  0.98546486  0.28893077  0.24783406    -0.78100
C641        C  0.51583731  0.31930277  0.24728850     0.82700
N642        N  0.55721324  0.30802461  0.24685203    -0.79800
C643        C  0.64304279  0.01564665  0.49644328     0.80100
N644        N  0.65448311  0.05689721  0.49379437    -0.78200
C645        C  0.69547145  0.06843510  0.49789339     0.82600
N646        N  0.72547086  0.03827642  0.50333877    -0.78100
C647        C  0.71446745  0.49668691  0.50487141     0.82700
N648        N  0.67306405  0.48558506  0.50201122    -0.79800
C649        C  0.64207856  0.01653978  0.23838759     0.80100
N650        N  0.67257359  0.48619885  0.23812240    -0.78200
C651        C  0.71409826  0.49725661  0.23985322     0.82600
N652        N  0.72488105  0.03888986  0.24164944    -0.78100
C653        C  0.69438046  0.06925098  0.24118462     0.82700
N654        N  0.65312881  0.05790552  0.23982228    -0.79800
O655        O  0.70352508  0.20813769  0.40839540    -0.78600
C656        C  0.70685631  0.11339981  0.49667825     0.82500
O657        O  0.63670263  0.27573971  0.01352568    -0.79700
O658        O  0.75210423  0.20256789  0.08193030    -0.81200
O659        O  0.83381979  0.23563706  0.46996572    -0.81000
O660        O  0.75822988  0.25293743  0.40638928    -0.79600
Zn661      Zn  0.68837380  0.20050858  0.46340889     1.55700
O662        O  0.82368187  0.18451457  0.01224305    -0.81000
Cd663      Cd  0.77335971  0.25954471  0.46231043     1.59700
Cd664      Cd  0.70020218  0.27270533  0.02623644     1.59600
O665        O  0.77650736  0.32299005  0.47542374    -0.81000
O666        O  0.72986490  0.22963394  0.49402109    -1.91500
Cd667      Cd  0.75983513  0.18719693  0.02566663     1.59900
O668        O  0.72441644  0.33314684  0.01748759    -0.80900
O669        O  0.73662319  0.12672549  0.01715289    -0.79600
C670        C  0.61385303  0.25394155  0.49171704     0.82900
C671        C  0.73052755  0.23041468  0.39023380     0.82600
O672        O  0.68603177  0.13810443  0.47562034    -0.78600
C673        C  0.84773107  0.20573328  0.49027870     0.83400
O674        O  0.62910849  0.22386387  0.47190102    -0.78600
C675        C  0.75491848  0.34698170  0.49713078     0.83500
C676        C  0.72964417  0.23007145  0.09932866     0.83900
O677        O  0.70717548  0.25745034  0.08246707    -0.81100
O678        O  0.62748626  0.22611512  0.22567859    -0.78600
C679        C  0.73016871  0.23055571  0.14027821     0.82500
O680        O  0.73508658  0.12614661  0.26376410    -0.79700
O681        O  0.83421177  0.23540500  0.22347955    -0.81200
O682        O  0.72544353  0.33465450  0.26486388    -0.81000
O683        O  0.63801674  0.27739191  0.26736122    -0.79600
Zn684      Zn  0.68622567  0.20334487  0.21370980     1.55700
O685        O  0.77670844  0.32236771  0.22246472    -0.81000
Cd686      Cd  0.70225431  0.27467255  0.27651224     1.59700
Cd687      Cd  0.75711153  0.18614739  0.27553025     1.59600
O688        O  0.71254898  0.26119563  0.33255700    -0.81000
O689        O  0.72933213  0.23024375  0.24408948    -1.91500
Cd690      Cd  0.77419531  0.25808726  0.21239156     1.59900
O691        O  0.74679625  0.19911884  0.33189657    -0.80900
O692        O  0.76131256  0.24806216  0.15636447    -0.79600
C693        C  0.70538765  0.11420266  0.24263518     0.82900
C694        C  0.61366482  0.25577283  0.24675186     0.82600
O695        O  0.69965401  0.21340588  0.15854651    -0.78200
C696        C  0.75536823  0.34744509  0.24339184     0.83400
O697        O  0.68431120  0.14025927  0.22307746    -0.78600
C698        C  0.72979523  0.23016974  0.34933597     0.83500
C699        C  0.84684543  0.20572001  0.24463311     0.83900
O700        O  0.82153021  0.18422959  0.26519925    -0.81100
C701        C  0.89268838  0.19434956  0.48781132     0.80100
N702        N  0.92290965  0.22441177  0.98243281    -0.78200
C703        C  0.96453637  0.21328147  0.98039051     0.82600
N704        N  0.97558685  0.17172612  0.98266244    -0.78100
C705        C  0.94539100  0.14165953  0.48805270     0.82700
N706        N  0.90416449  0.15321246  0.49128551    -0.79800
C707        C  0.89182251  0.19481890  0.74492367     0.80100
N708        N  0.92208797  0.22530521  0.74528198    -0.78200
C709        C  0.96371444  0.21434866  0.74688963     0.82600
N710        N  0.97482293  0.17273251  0.74767004    -0.78100
C711        C  0.94454215  0.14232402  0.74652308     0.82700
N712        N  0.90321978  0.15352227  0.74534749    -0.79800
C713        C  0.81928372  0.44427548  0.99829910     0.80100
N714        N  0.80776242  0.40309520  0.99562145    -0.78200
C715        C  0.76647506  0.39180891  0.99910638     0.82600
N716        N  0.73633335  0.42213032  0.00385646    -0.78100
C717        C  0.74744525  0.46366916  0.00535638     0.82700
N718        N  0.78907555  0.47456053  0.00315447    -0.79800
C719        C  0.81913220  0.44493931  0.74184069     0.80100
N720        N  0.78870933  0.47528905  0.74024868    -0.78200
C721        C  0.74708044  0.46431240  0.74069991     0.82600
N722        N  0.73609939  0.42272073  0.74234113    -0.78100
C723        C  0.76654767  0.39234602  0.74310312     0.82700
N724        N  0.80792063  0.40359499  0.74301924    -0.79800
O725        O  0.88905168  0.43441659  0.97476561    -0.78600
C726        C  0.98080948  0.47957959  0.88840773     0.82500
O727        O  0.52671015  0.38643810  0.51103278    -0.79700
O728        O  0.57449168  0.02554404  0.97272353    -0.81200
O729        O  0.93508445  0.07284059  0.51194117    -0.81000
O730        O  0.87751219  0.48582150  0.51645241    -0.79600
Zn731      Zn  0.95171665  0.43672465  0.96152804     1.55700
O732        O  0.98699617  0.08273817  0.96973958    -0.81000
Cd733      Cd  0.93784858  0.00900050  0.52440134     1.59700
Cd734      Cd  0.52375069  0.45003116  0.52332924     1.59600
O735        O  0.95256336  0.50105592  0.58029174    -0.81000
O736        O  0.98054704  0.47889523  0.99200448    -1.91500
Cd737      Cd  0.51069703  0.02234950  0.96078088     1.59900
O738        O  0.50889244  0.45809548  0.57957889    -0.80900
O739        O  0.00258670  0.00768726  0.90497734    -0.79600
C740        C  0.50513105  0.36291651  0.98964430     0.82900
C741        C  0.86426631  0.45562613  0.99621723     0.82600
O742        O  0.95959991  0.45155302  0.90637432    -0.78600
C743        C  0.95672141  0.09675952  0.99023111     0.83400
O744        O  0.97524365  0.37753472  0.96988440    -0.78600
C745        C  0.98073150  0.47965309  0.59714247     0.83500
C746        C  0.59825067  0.00409209  0.99406759     0.83900
O747        O  0.58413373  0.47377129  0.51413943    -0.81100
O748        O  0.97443722  0.37862989  0.76558893    -0.78600
C749        C  0.98039691  0.47991338  0.84724124     0.82500
O750        O  0.87718076  0.48644694  0.72160937    -0.79700
O751        O  0.98560842  0.08384853  0.76556084    -0.81200
O752        O  0.58404873  0.47492304  0.71942250    -0.81000
O753        O  0.52678019  0.38779809  0.72370015    -0.79600
Zn754      Zn  0.95115737  0.43766174  0.77481529     1.55700
O755        O  0.57263715  0.02656916  0.76096895    -0.81000
Cd756      Cd  0.52374080  0.45125828  0.71113896     1.59700
Cd757      Cd  0.93748755  0.00948611  0.71198097     1.59600
O758        O  0.50916852  0.45886014  0.65515236    -0.81000
O759        O  0.97992469  0.47977790  0.74346710    -1.91500
Cd760      Cd  0.50902916  0.02349185  0.77408135     1.59900
O761        O  0.95234375  0.50115677  0.65577736    -0.80900
O762        O  0.00139525  0.00860738  0.83005626    -0.79600
C763        C  0.86399065  0.45637191  0.74238832     0.82900
C764        C  0.50477606  0.36420733  0.74536342     0.82600
O765        O  0.95932446  0.45184463  0.82986002    -0.78600
C766        C  0.59723627  0.00520812  0.73960095     0.83400
O767        O  0.88869787  0.43541708  0.76331475    -0.78600
C768        C  0.98075554  0.47988750  0.63825521     0.83500
C769        C  0.95582557  0.09747030  0.74527169     0.83900
O770        O  0.93474777  0.07324283  0.72409106    -0.81100
C771        C  0.56898022  0.26515427  0.98853506     0.80100
N772        N  0.53903494  0.23504534  0.98312155    -0.78200
C773        C  0.99754008  0.24620692  0.98034325     0.82600
N774        N  0.98639244  0.28783116  0.98191178    -0.78100
C775        C  0.51635250  0.31794005  0.98723626     0.82700
N776        N  0.55733667  0.30633131  0.99123282    -0.79800
C777        C  0.56861887  0.26670850  0.74665124     0.80100
N778        N  0.53829783  0.23628004  0.74640635    -0.78200
C779        C  0.99659522  0.24729339  0.74725505     0.82600
N780        N  0.98546488  0.28893077  0.74783403    -0.78100
C781        C  0.51583728  0.31930278  0.74728848     0.82700
N782        N  0.55721323  0.30802466  0.74685200    -0.79800
C783        C  0.64304283  0.01564665  0.99644321     0.80100
N784        N  0.65448311  0.05689716  0.99379439    -0.78200
C785        C  0.69547145  0.06843510  0.99789343     0.82600
N786        N  0.72547089  0.03827639  0.00333865    -0.78100
C787        C  0.71446743  0.49668689  0.00487137     0.82700
N788        N  0.67306402  0.48558508  0.00201125    -0.79800
C789        C  0.64207857  0.01653985  0.73838756     0.80100
N790        N  0.67257352  0.48619875  0.73812237    -0.78200
C791        C  0.71409824  0.49725650  0.73985320     0.82600
N792        N  0.72488104  0.03888994  0.74164940    -0.78100
C793        C  0.69438045  0.06925105  0.74118456     0.82700
N794        N  0.65312878  0.05790558  0.73982224    -0.79800
O795        O  0.70352505  0.20813780  0.90839540    -0.78600
C796        C  0.70685628  0.11339980  0.99667826     0.82500
O797        O  0.63670262  0.27573965  0.51352569    -0.79700
O798        O  0.75210414  0.20256784  0.58193028    -0.81200
O799        O  0.83381976  0.23563723  0.96996590    -0.81000
O800        O  0.75822986  0.25293754  0.90638927    -0.79600
Zn801      Zn  0.68837377  0.20050868  0.96340886     1.55700
O802        O  0.82368186  0.18451449  0.51224294    -0.81000
Cd803      Cd  0.77335968  0.25954482  0.96231041     1.59700
Cd804      Cd  0.70020215  0.27270542  0.52623642     1.59600
O805        O  0.77650733  0.32299017  0.97542369    -0.81000
O806        O  0.72986491  0.22963396  0.99402107    -1.91500
Cd807      Cd  0.75983511  0.18719702  0.52566661     1.59900
O808        O  0.72441639  0.33314687  0.51748756    -0.80900
O809        O  0.73662317  0.12672556  0.51715288    -0.79600
C810        C  0.61385301  0.25394156  0.99171704     0.82900
C811        C  0.73052755  0.23041475  0.89023381     0.82600
O812        O  0.68603178  0.13810446  0.97562035    -0.78600
C813        C  0.84773105  0.20573340  0.99027884     0.83400
O814        O  0.62910849  0.22386393  0.97190100    -0.78600
C815        C  0.75491845  0.34698176  0.99713077     0.83500
C816        C  0.72964418  0.23007145  0.59932866     0.83900
O817        O  0.70717552  0.25745041  0.58246707    -0.81100
O818        O  0.62748625  0.22611499  0.72567857    -0.78600
C819        C  0.73016868  0.23055565  0.64027823     0.82500
O820        O  0.73508657  0.12614652  0.76376407    -0.79700
O821        O  0.83421179  0.23540508  0.72347952    -0.81200
O822        O  0.72544350  0.33465456  0.76486384    -0.81000
O823        O  0.63801676  0.27739181  0.76736120    -0.79600
Zn824      Zn  0.68622564  0.20334472  0.71370977     1.55700
O825        O  0.77670839  0.32236769  0.72246468    -0.81000
Cd826      Cd  0.70225430  0.27467263  0.77651221     1.59700
Cd827      Cd  0.75711150  0.18614721  0.77553023     1.59600
O828        O  0.71254915  0.26119561  0.83255696    -0.81000
O829        O  0.72933208  0.23024362  0.74408948    -1.91500
Cd830      Cd  0.77419528  0.25808710  0.71239155     1.59900
O831        O  0.74679619  0.19911867  0.83189662    -0.80900
O832        O  0.76131256  0.24806195  0.65636455    -0.79600
C833        C  0.70538760  0.11420267  0.74263515     0.82900
C834        C  0.61366483  0.25577280  0.74675183     0.82600
O835        O  0.69965391  0.21340589  0.65854648    -0.78200
C836        C  0.75536822  0.34744511  0.74339181     0.83400
O837        O  0.68431119  0.14025930  0.72307745    -0.78600
C838        C  0.72979530  0.23016968  0.84933597     0.83500
C839        C  0.84684545  0.20572011  0.74463310     0.83900
O840        O  0.82153021  0.18422968  0.76519921    -0.81100
C841        C  0.89268843  0.69434956  0.98781135     0.80100
N842        N  0.92290969  0.72441177  0.48243283    -0.78200
C843        C  0.96453644  0.71328147  0.48039056     0.82600
N844        N  0.97558695  0.67172616  0.48266243    -0.78100
C845        C  0.94539106  0.64165953  0.98805281     0.82700
N846        N  0.90416454  0.65321246  0.99128555    -0.79800
C847        C  0.89182247  0.69481896  0.24492367     0.80100
N848        N  0.92208790  0.72530525  0.24528201    -0.78200
C849        C  0.96371443  0.71434872  0.24688967     0.82600
N850        N  0.97482287  0.67273254  0.24767005    -0.78100
C851        C  0.94454216  0.64232407  0.24652304     0.82700
N852        N  0.90321973  0.65352228  0.24534750    -0.79800
C853        C  0.81928371  0.94427547  0.49829920     0.80100
N854        N  0.80776246  0.90309524  0.49562148    -0.78200
C855        C  0.76647508  0.89180888  0.49910640     0.82600
N856        N  0.73633337  0.92213030  0.50385642    -0.78100
C857        C  0.74744524  0.96366910  0.50535642     0.82700
N858        N  0.78907555  0.97456053  0.50315464    -0.79800
C859        C  0.81913225  0.94493926  0.24184066     0.80100
N860        N  0.78870939  0.97528904  0.24024852    -0.78200
C861        C  0.74708048  0.96431240  0.24069988     0.82600
N862        N  0.73609942  0.92272074  0.24234118    -0.78100
C863        C  0.76654770  0.89234600  0.24310315     0.82700
N864        N  0.80792066  0.90359498  0.24301928    -0.79800
O865        O  0.88905164  0.93441648  0.47476565    -0.78600
C866        C  0.98080934  0.97957962  0.38840772     0.82500
O867        O  0.52671023  0.88643804  0.01103281    -0.79700
O868        O  0.57449159  0.52554391  0.47272355    -0.81200
O869        O  0.93508453  0.57284053  0.01194118    -0.81000
O870        O  0.87751225  0.98582155  0.01645241    -0.79600
Zn871      Zn  0.95171671  0.93672472  0.46152806     1.55700
O872        O  0.98699629  0.58273823  0.46973960    -0.81000
Cd873      Cd  0.93784841  0.50900057  0.02440137     1.59700
Cd874      Cd  0.52375079  0.95003124  0.02332925     1.59600
O875        O  0.95256346  0.00105606  0.08029177    -0.81000
O876        O  0.98054719  0.97889516  0.49200447    -1.91500
Cd877      Cd  0.51069710  0.52234958  0.46078090     1.59900
O878        O  0.50889256  0.95809561  0.07957892    -0.80900
O879        O  0.00258679  0.50768718  0.40497736    -0.79600
C880        C  0.50513106  0.86291658  0.48964432     0.82900
C881        C  0.86426632  0.95562612  0.49621726     0.82600
O882        O  0.95959975  0.95155312  0.40637433    -0.78600
C883        C  0.95672152  0.59675953  0.49023111     0.83400
O884        O  0.97524354  0.87753477  0.46988446    -0.78600
C885        C  0.98073157  0.97965316  0.09714249     0.83500
C886        C  0.59825055  0.50409206  0.49406771     0.83900
O887        O  0.58413384  0.97377128  0.01413926    -0.81100
O888        O  0.97443714  0.87862981  0.26558890    -0.78600
C889        C  0.98039685  0.97991338  0.34724122     0.82500
O890        O  0.87718081  0.98644696  0.22160946    -0.79700
O891        O  0.98560844  0.58384859  0.26556079    -0.81200
O892        O  0.58404867  0.97492311  0.21942250    -0.81000
O893        O  0.52678013  0.88779810  0.22370014    -0.79600
Zn894      Zn  0.95115746  0.93766156  0.27481532     1.55700
O895        O  0.57263715  0.52656906  0.26096902    -0.81000
Cd896      Cd  0.52374087  0.95125835  0.21113899     1.59700
Cd897      Cd  0.93748765  0.50948616  0.21198099     1.59600
O898        O  0.50916841  0.95886000  0.15515240    -0.81000
O899        O  0.97992470  0.97977787  0.24346718    -1.91500
Cd900      Cd  0.50902902  0.52349193  0.27408138     1.59900
O901        O  0.95234379  0.00115672  0.15577740    -0.80900
O902        O  0.00139530  0.50860739  0.33005625    -0.79600
C903        C  0.86399073  0.95637188  0.24238833     0.82900
C904        C  0.50477603  0.86420733  0.24536344     0.82600
O905        O  0.95932442  0.95184454  0.32986003    -0.78600
C906        C  0.59723632  0.50520808  0.23960097     0.83400
O907        O  0.88869796  0.93541696  0.26331472    -0.78600
C908        C  0.98075560  0.97988751  0.13825523     0.83500
C909        C  0.95582560  0.59747032  0.24527157     0.83900
O910        O  0.93474792  0.57324283  0.22409090    -0.81100
C911        C  0.56898017  0.76515431  0.48853505     0.80100
N912        N  0.53903493  0.73504539  0.48312157    -0.78200
C913        C  0.99754010  0.74620696  0.48034329     0.82600
N914        N  0.98639247  0.78783120  0.48191181    -0.78100
C915        C  0.51635243  0.81794007  0.48723629     0.82700
N916        N  0.55733661  0.80633137  0.49123285    -0.79800
C917        C  0.56861883  0.76670856  0.24665128     0.80100
N918        N  0.53829780  0.73628008  0.24640638    -0.78200
C919        C  0.99659523  0.74729343  0.24725508     0.82600
N920        N  0.98546492  0.78893081  0.24783406    -0.78100
C921        C  0.51583720  0.81930279  0.24728849     0.82700
N922        N  0.55721316  0.80802468  0.24685203    -0.79800
C923        C  0.64304273  0.51564670  0.49644326     0.80100
N924        N  0.65448304  0.55689720  0.49379437    -0.78200
C925        C  0.69547141  0.56843514  0.49789337     0.82600
N926        N  0.72547081  0.53827643  0.50333876    -0.78100
C927        C  0.71446747  0.99668690  0.50487141     0.82700
N928        N  0.67306409  0.98558506  0.50201123    -0.79800
C929        C  0.64207856  0.51653985  0.23838760     0.80100
N930        N  0.67257355  0.98619877  0.23812240    -0.78200
C931        C  0.71409826  0.99725653  0.23985322     0.82600
N932        N  0.72488107  0.53888993  0.24164943    -0.78100
C933        C  0.69438040  0.56925106  0.24118461     0.82700
N934        N  0.65312880  0.55790557  0.23982228    -0.79800
O935        O  0.70352492  0.70813786  0.40839542    -0.78600
C936        C  0.70685627  0.61339985  0.49667825     0.82500
O937        O  0.63670260  0.77573965  0.01352570    -0.79700
O938        O  0.75210423  0.70256785  0.08193029    -0.81200
O939        O  0.83381975  0.73563696  0.46996566    -0.81000
O940        O  0.75822998  0.75293727  0.40638926    -0.79600
Zn941      Zn  0.68837385  0.70050875  0.46340889     1.55700
O942        O  0.82368188  0.68451451  0.01224305    -0.81000
Cd943      Cd  0.77335978  0.75954463  0.46231043     1.59700
Cd944      Cd  0.70020225  0.77270524  0.02623644     1.59600
O945        O  0.77650746  0.82299012  0.47542372    -0.81000
O946        O  0.72986499  0.72963388  0.49402110    -1.91500
Cd947      Cd  0.75983497  0.68719708  0.02566663     1.59900
O948        O  0.72441652  0.83314673  0.01748759    -0.80900
O949        O  0.73662319  0.62672549  0.01715289    -0.79600
C950        C  0.61385296  0.75394159  0.49171704     0.82900
C951        C  0.73052754  0.73041465  0.39023380     0.82600
O952        O  0.68603183  0.63810457  0.47562035    -0.78600
C953        C  0.84773110  0.70573328  0.49027869     0.83400
O954        O  0.62910840  0.72386385  0.47190109    -0.78600
C955        C  0.75491858  0.84698174  0.49713077     0.83500
C956        C  0.72964422  0.73007142  0.09932867     0.83900
O957        O  0.70717564  0.75745040  0.08246709    -0.81100
O958        O  0.62748624  0.72611506  0.22567860    -0.78600
C959        C  0.73016870  0.73055561  0.14027822     0.82500
O960        O  0.73508643  0.62614661  0.26376410    -0.79700
O961        O  0.83421164  0.73540514  0.22347955    -0.81200
O962        O  0.72544362  0.83465450  0.26486388    -0.81000
O963        O  0.63801680  0.77739185  0.26736121    -0.79600
Zn964      Zn  0.68622550  0.70334478  0.21370981     1.55700
O965        O  0.77670848  0.82236766  0.22246472    -0.81000
Cd966      Cd  0.70225440  0.77467270  0.27651224     1.59700
Cd967      Cd  0.75711135  0.68614730  0.27553026     1.59600
O968        O  0.71254901  0.76119556  0.33255699    -0.81000
O969        O  0.72933204  0.73024369  0.24408951    -1.91500
Cd970      Cd  0.77419511  0.75808717  0.21239155     1.59900
O971        O  0.74679624  0.69911874  0.33189658    -0.80900
O972        O  0.76131248  0.74806212  0.15636450    -0.79600
C973        C  0.70538755  0.61420267  0.24263518     0.82900
C974        C  0.61366485  0.75577284  0.24675187     0.82600
O975        O  0.69965401  0.71340573  0.15854649    -0.78200
C976        C  0.75536831  0.84744507  0.24339183     0.83400
O977        O  0.68431103  0.64025925  0.22307746    -0.78600
C978        C  0.72979522  0.73016965  0.34933597     0.83500
C979        C  0.84684536  0.70572016  0.24463313     0.83900
O980        O  0.82153015  0.68422975  0.26519927    -0.81100
C981        C  0.89268844  0.69434956  0.48781130     0.80100
N982        N  0.92290969  0.72441172  0.98243282    -0.78200
C983        C  0.96453644  0.71328140  0.98039051     0.82600
N984        N  0.97558690  0.67172608  0.98266245    -0.78100
C985        C  0.94539110  0.64165958  0.48805272     0.82700
N986        N  0.90416458  0.65321249  0.49128552    -0.79800
C987        C  0.89182244  0.69481892  0.74492364     0.80100
N988        N  0.92208783  0.72530529  0.74528198    -0.78200
C989        C  0.96371439  0.71434873  0.74688963     0.82600
N990        N  0.97482284  0.67273261  0.74767003    -0.78100
C991        C  0.94454215  0.64232408  0.74652306     0.82700
N992        N  0.90321973  0.65352230  0.74534749    -0.79800
C993        C  0.81928371  0.94427542  0.99829913     0.80100
N994        N  0.80776247  0.90309515  0.99562146    -0.78200
C995        C  0.76647508  0.89180881  0.99910638     0.82600
N996        N  0.73633339  0.92213022  0.00385646    -0.78100
C997        C  0.74744525  0.96366903  0.00535638     0.82700
N998        N  0.78907555  0.97456047  0.00315448    -0.79800
C999        C  0.81913229  0.94493926  0.74184070     0.80100
N1000       N  0.78870943  0.97528904  0.74024868    -0.78200
C1001       C  0.74708052  0.96431243  0.74069992     0.82600
N1002       N  0.73609947  0.92272075  0.74234113    -0.78100
C1003       C  0.76654775  0.89234601  0.74310313     0.82700
N1004       N  0.80792071  0.90359496  0.74301924    -0.79800
O1005       O  0.88905163  0.93441657  0.97476558    -0.78600
C1006       C  0.98080936  0.97957964  0.88840773     0.82500
O1007       O  0.52671025  0.88643808  0.51103281    -0.79700
O1008       O  0.57449155  0.52554399  0.97272356    -0.81200
O1009       O  0.93508454  0.57284057  0.51194117    -0.81000
O1010       O  0.87751224  0.98582158  0.51645236    -0.79600
Zn1011     Zn  0.95171669  0.93672480  0.96152804     1.55700
O1012       O  0.98699626  0.58273820  0.96973957    -0.81000
Cd1013     Cd  0.93784863  0.50900041  0.52440134     1.59700
Cd1014     Cd  0.52375076  0.95003108  0.52332923     1.59600
O1015       O  0.95256348  0.00105607  0.58029173    -0.81000
O1016       O  0.98054717  0.97889528  0.99200446    -1.91500
Cd1017     Cd  0.51069709  0.52234943  0.96078087     1.59900
O1018       O  0.50889245  0.95809544  0.57957891    -0.80900
O1019       O  0.00258676  0.50768721  0.90497735    -0.79600
C1020       C  0.50513109  0.86291648  0.98964433     0.82900
C1021       C  0.86426632  0.95562612  0.99621723     0.82600
O1022       O  0.95959971  0.95155317  0.90637433    -0.78600
C1023       C  0.95672149  0.59675949  0.99023112     0.83400
O1024       O  0.97524366  0.87753470  0.96988438    -0.78600
C1025       C  0.98073154  0.97965310  0.59714247     0.83500
C1026       C  0.59825052  0.50409209  0.99406761     0.83900
O1027       O  0.58413383  0.97377125  0.51413940    -0.81100
O1028       O  0.97443715  0.87862977  0.76558887    -0.78600
C1029       C  0.98039692  0.97991337  0.84724124     0.82500
O1030       O  0.87718081  0.98644691  0.72160937    -0.79700
O1031       O  0.98560849  0.58384860  0.76556084    -0.81200
O1032       O  0.58404864  0.97492314  0.71942247    -0.81000
O1033       O  0.52678029  0.88779799  0.72370015    -0.79600
Zn1034     Zn  0.95115745  0.93766164  0.77481529     1.55700
O1035       O  0.57263712  0.52656910  0.76096893    -0.81000
Cd1036     Cd  0.52374085  0.95125819  0.71113896     1.59700
Cd1037     Cd  0.93748761  0.50948602  0.71198097     1.59600
O1038       O  0.50916838  0.95886007  0.65515238    -0.81000
O1039       O  0.97992473  0.97977786  0.74346708    -1.91500
Cd1040     Cd  0.50902899  0.52349178  0.77408136     1.59900
O1041       O  0.95234378  0.00115684  0.65577735    -0.80900
O1042       O  0.00139535  0.50860733  0.83005625    -0.79600
C1043       C  0.86399073  0.95637188  0.74238832     0.82900
C1044       C  0.50477611  0.86420724  0.74536343     0.82600
O1045       O  0.95932457  0.95184451  0.82986001    -0.78600
C1046       C  0.59723629  0.50520808  0.73960094     0.83400
O1047       O  0.88869795  0.93541704  0.76331476    -0.78600
C1048       C  0.98075557  0.97988757  0.63825521     0.83500
C1049       C  0.95582557  0.59747033  0.74527169     0.83900
O1050       O  0.93474784  0.57324278  0.72409109    -0.81100
C1051       C  0.56898020  0.76515423  0.98853504     0.80100
N1052       N  0.53903500  0.73504529  0.98312156    -0.78200
C1053       C  0.99754009  0.74620686  0.98034325     0.82600
N1054       N  0.98639245  0.78783110  0.98191178    -0.78100
C1055       C  0.51635248  0.81793998  0.98723626     0.82700
N1056       N  0.55733669  0.80633130  0.99123281    -0.79800
C1057       C  0.56861891  0.76670854  0.74665126     0.80100
N1058       N  0.53829784  0.73628002  0.74640635    -0.78200
C1059       C  0.99659517  0.74729345  0.74725504     0.82600
N1060       N  0.98546492  0.78893077  0.74783403    -0.78100
C1061       C  0.51583734  0.81930277  0.74728847     0.82700
N1062       N  0.55721325  0.80802462  0.74685200    -0.79800
C1063       C  0.64304271  0.51564664  0.99644323     0.80100
N1064       N  0.65448297  0.55689722  0.99379440    -0.78200
C1065       C  0.69547137  0.56843510  0.99789344     0.82600
N1066       N  0.72547076  0.53827645  0.00333865    -0.78100
C1067       C  0.71446753  0.99668689  0.00487138     0.82700
N1068       N  0.67306413  0.98558501  0.00201126    -0.79800
C1069       C  0.64207858  0.51653978  0.73838757     0.80100
N1070       N  0.67257357  0.98619884  0.73812237    -0.78200
C1071       C  0.71409830  0.99725661  0.73985320     0.82600
N1072       N  0.72488106  0.53888981  0.74164941    -0.78100
C1073       C  0.69438050  0.56925096  0.74118458     0.82700
N1074       N  0.65312884  0.55790552  0.73982225    -0.79800
O1075       O  0.70352496  0.70813776  0.90839539    -0.78600
C1076       C  0.70685623  0.61339980  0.99667827     0.82500
O1077       O  0.63670259  0.77573973  0.51352565    -0.79700
O1078       O  0.75210429  0.70256791  0.58193029    -0.81200
O1079       O  0.83381984  0.73563713  0.96996590    -0.81000
O1080       O  0.75822990  0.75293737  0.90638926    -0.79600
Zn1081     Zn  0.68837382  0.70050859  0.96340886     1.55700
O1082       O  0.82368194  0.68451454  0.51224302    -0.81000
Cd1083     Cd  0.77335977  0.75954472  0.96231041     1.59700
Cd1084     Cd  0.70020222  0.77270533  0.52623641     1.59600
O1085       O  0.77650742  0.82299006  0.97542369    -0.81000
O1086       O  0.72986493  0.72963393  0.99402103    -1.91500
Cd1087     Cd  0.75983519  0.68719693  0.52566661     1.59900
O1088       O  0.72441651  0.83314682  0.51748757    -0.80900
O1089       O  0.73662321  0.62672549  0.51715288    -0.79600
C1090       C  0.61385300  0.75394157  0.99171703     0.82900
C1091       C  0.73052749  0.73041469  0.89023381     0.82600
O1092       O  0.68603181  0.63810443  0.97562035    -0.78600
C1093       C  0.84773111  0.70573332  0.99027884     0.83400
O1094       O  0.62910842  0.72386387  0.97190101    -0.78600
C1095       C  0.75491856  0.84698166  0.99713076     0.83500
C1096       C  0.72964424  0.73007147  0.59932865     0.83900
O1097       O  0.70717555  0.75745036  0.58246705    -0.81100
O1098       O  0.62748629  0.72611510  0.72567851    -0.78600
C1099       C  0.73016869  0.73055571  0.64027823     0.82500
O1100       O  0.73508661  0.62614660  0.76376407    -0.79700
O1101       O  0.83421157  0.73540499  0.72347951    -0.81200
O1102       O  0.72544358  0.83465451  0.76486385    -0.81000
O1103       O  0.63801679  0.77739176  0.76736124    -0.79600
Zn1104     Zn  0.68622572  0.70334488  0.71370977     1.55700
O1105       O  0.77670847  0.82236771  0.72246469    -0.81000
Cd1106     Cd  0.70225437  0.77467256  0.77651221     1.59700
Cd1107     Cd  0.75711133  0.68614740  0.77553023     1.59600
O1108       O  0.71254898  0.76119565  0.83255701    -0.81000
O1109       O  0.72933209  0.73024377  0.74408947    -1.91500
Cd1110     Cd  0.77419509  0.75808728  0.71239154     1.59900
O1111       O  0.74679621  0.69911885  0.83189659    -0.80900
O1112       O  0.76131242  0.74806222  0.65636457    -0.79600
C1113       C  0.70538770  0.61420265  0.74263514     0.82900
C1114       C  0.61366486  0.75577279  0.74675182     0.82600
O1115       O  0.69965399  0.71340583  0.65854647    -0.78200
C1116       C  0.75536829  0.84744510  0.74339182     0.83400
O1117       O  0.68431126  0.64025927  0.72307743    -0.78600
C1118       C  0.72979518  0.73016974  0.84933598     0.83500
C1119       C  0.84684531  0.70572004  0.74463308     0.83900
O1120       O  0.82153013  0.68422960  0.76519924    -0.81100
loop_ 
_geom_bond_atom_site_label_1 
_geom_bond_atom_site_label_2 
_geom_bond_distance 
_geom_bond_site_symmetry_2 
_ccdc_geom_bond_type 
C1            N6   1.356       .  A
C1          N142   1.359       .  A
C1          C253   1.466       .  S
N2            C3   1.362       .  A
N2          C141   1.359       .  A
C3            N4   1.361       .  A
C3           C73   1.474       .  S
N4          C145   1.359       .  A
C5            N6   1.355       .  A
C5          N144   1.359       .  A
C5          C183   1.465       .  S
C7            N8   1.359       .  A
C7           N12   1.354       .  A
C7          C139   1.462       .  S
N8            C9   1.362       .  A
C9           N10   1.361       .  A
C9           C79   1.472       .  S
N10          C11   1.358       .  A
C11          N12   1.354       .  A
C11          C69   1.462       .  S
C13          N14   1.356       .  A
C13          N18   1.360       .  A
C13          C41   1.467       .  S
N14          C15   1.357       .  A
C15          N16   1.359       .  A
C15         C115   1.466       .  S
N16          C17   1.361       .  A
C17          N18   1.361       .  A
C17          C87   1.474       .  S
C19          N20   1.359       .  A
C19          N24   1.355       .  A
C19          C63   1.464       .  S
N20          C21   1.361       .  A
C21          N22   1.361       .  A
C21          C91   1.473       .  S
N22          C23   1.359       .  A
C23          N24   1.355       .  A
C23         C136   1.463       .  S
O25          C41   1.275       .  A
O25         Zn31   2.029       .  S
C26          C49   1.469       .  S
C26          O42   1.277       .  A
C26         O319   1.276       .  A
O27         C180   1.273   1_554  A
O27         Cd34   2.059       .  S
O28          C46   1.274       .  A
O28         Cd37   2.070       .  S
O29         C183   1.274   1_554  A
O29         Cd33   2.068       .  S
O30         C181   1.272   1_554  A
O30        Cd313   2.068       .  S
Zn31         O42   2.034       .  S
Zn31         O44   2.036       .  S
Zn31         O36   1.956       .  S
O32          C43   1.273       .  A
O32        Cd597   2.072       .  S
Cd33        O310   2.068   1_545  S
Cd33        O315   2.071       .  S
Cd33        O456   2.001   1_544  S
Cd34         O38   2.068       .  S
Cd34         O47   2.072       .  S
Cd34        O736   1.999   1_454  S
O35          C45   1.276       .  A
O35        Cd313   2.071       .  S
O36        Cd453   2.001       .  S
O36        Cd734   1.999       .  S
O36        Cd877   2.000       .  S
Cd37        O592   2.072   1_455  S
Cd37        O599   2.065       .  S
Cd37        O876   2.000   1_445  S
O38         C605   1.276   1_455  A
O39         C306   1.276   1_545  A
O39        Cd597   2.065       .  S
C40          C75   1.467       .  S
C40         O167   1.273       .  A
C40         O604   1.275   1_455  A
C41         O170   1.272       .  A
C43         C145   1.465       .  S
C43         O169   1.274       .  A
O44         C600   1.275       .  A
C45          C68   1.467       .  S
C45         O598   1.276       .  A
C46          C83   1.466       .  S
C46         O467   1.273   1_545  A
O47         C466   1.273   1_554  A
O48         C624   1.273       .  A
O48         Zn54   2.029       .  S
C49          O65   1.277       .  A
C49         O342   1.275       .  A
O50          C63   1.272       .  A
O50        Cd337   2.064       .  S
O51          C69   1.272       .  A
O51        Cd620   2.070       .  S
O52         C346   1.273       .  A
O52         Cd56   2.074       .  S
O53          C64   1.273       .  A
O53         Cd56   2.058       .  S
Zn54         O65   2.035       .  S
Zn54         O67   2.024       .  S
Zn54         O59   1.954       .  S
O55          C66   1.272       .  A
O55         Cd60   2.058       .  S
Cd56         O58   2.072       .  S
Cd56        O619   2.000   1_455  S
Cd57         O70   2.062       .  S
Cd57        O330   2.064   1_545  S
Cd57        O341   2.068       .  S
Cd57        O339   1.998   1_545  S
O58         C628   1.276   1_455  A
O59        Cd616   2.000       .  S
O59        Cd337   1.998       .  S
O59        Cd900   1.997       .  S
Cd60        O611   2.070   1_455  S
Cd60        O622   2.062       .  S
Cd60        O899   1.997   1_445  S
O61          C68   1.275       .  A
O61        Cd337   2.068       .  S
O62         C329   1.275   1_545  A
O62        Cd620   2.062       .  S
C63          O67   1.275       .  A
C64          C81   1.463       .  S
C64         O608   1.273   1_455  A
C66          C89   1.462       .  S
C66         O332   1.273   1_545  A
C68         O618   1.276       .  A
C69          O70   1.273       .  A
C71          N72   1.359       .  A
C71          N76   1.355       .  A
C71         C110   1.467       .  S
N72         C633   1.363   1_455  A
C73          N74   1.362       .  A
C73         N632   1.363       .  A
N74         C635   1.359       .  A
C75          N76   1.355       .  A
C75         N634   1.359   1_455  A
C77          N78   1.359       .  A
C77          N82   1.354       .  A
C77         C134   1.464       .  S
N78         C639   1.362   1_455  A
C79          N80   1.362       .  A
C79         N638   1.362       .  A
N80         C641   1.358       .  A
C81          N82   1.354       .  A
C81         N640   1.358   1_455  A
C83          N84   1.356       .  A
C83         N368   1.359   1_545  A
N84          C85   1.357       .  A
C85          N86   1.360       .  A
C85          C96   1.467       .  S
N86         C367   1.361   1_545  A
C87          N88   1.361       .  A
C87         N366   1.361       .  A
N88         C363   1.359       .  A
C89          N94   1.355       .  A
C89         N370   1.358   1_545  A
N90          C91   1.361       .  A
N90         C369   1.358       .  A
C91         N372   1.362       .  A
N92          C93   1.359       .  A
N92         C371   1.362   1_545  A
C93          N94   1.354       .  A
C93         C133   1.464       .  S
O95         C111   1.275       .  A
O95        Zn101   2.026       .  S
C96         O112   1.274       .  A
C96         O249   1.273       .  A
O97         C250   1.274   1_554  A
O97        Cd104   2.067       .  S
O98         C116   1.276       .  A
O98        Cd107   2.075       .  S
O99         C113   1.274       .  A
O99        Cd103   2.076       .  S
O100        C111   1.275       .  A
O100       Cd103   2.070       .  S
Zn101       O112   2.021       .  S
Zn101       O114   2.030       .  S
Zn101       O106   1.953       .  S
O102        C253   1.274   1_554  A
O102       Cd107   2.067       .  S
Cd103       O105   2.062       .  S
Cd103       O106   2.003       .  S
Cd104       O108   2.081       .  S
Cd104       O117   2.079       .  S
Cd104       O246   2.003   1_554  S
O105        C115   1.273       .  A
O106       Cd244   2.003       .  S
O106       Cd247   2.001       .  S
Cd107       O109   2.073       .  S
Cd107       O246   2.001   1_554  S
O108        C255   1.274   1_554  A
O109        C236   1.273   1_554  A
C110        O114   1.274       .  A
C110        O237   1.274       .  A
C111        C138   1.460       .  S
C113        C141   1.466       .  S
C113        O242   1.274       .  A
C115        O248   1.274       .  A
C116        C119   1.461       .  S
C116        O117   1.276       .  A
O118        C134   1.273       .  A
O118       Zn124   2.028       .  S
C119        O135   1.276       .  A
C119        O132   1.275       .  A
O120        C133   1.272       .  A
O120       Cd127   2.067       .  S
O121        C139   1.272       .  A
O121       Cd130   2.071       .  S
O122        C136   1.273       .  A
O122       Cd126   2.073       .  S
O123        C134   1.273       .  A
O123       Cd126   2.063       .  S
Zn124       O135   2.031       .  S
Zn124       O137   2.023       .  S
Zn124       O129   1.952       .  S
O125        C136   1.273       .  A
O125       Cd130   2.065       .  S
Cd126       O128   2.076       .  S
Cd126       O129   2.001       .  S
Cd127       O131   2.072       .  S
Cd127       O140   2.063       .  S
Cd127       O129   2.001       .  S
O128        C138   1.276       .  A
O129       Cd130   2.003       .  S
Cd130       O132   2.071       .  S
O131        C138   1.275       .  A
C133        O137   1.274       .  A
C139        O140   1.273       .  A
C141        N146   1.356       .  A
N142        C143   1.362       .  A
C143        N144   1.361       .  A
C143        C213   1.474       .  S
C145        N146   1.355       .  A
C147        N148   1.359       .  A
C147        N152   1.354       .  A
C147        C279   1.462       .  S
N148        C149   1.362       .  A
C149        N150   1.361       .  A
C149        C219   1.472       .  S
N150        C151   1.358       .  A
C151        N152   1.354       .  A
C151        C209   1.462       .  S
C153        N154   1.356       .  A
C153        N158   1.360   1_556  A
C153        C181   1.467       .  S
N154        C155   1.357       .  A
C155        N156   1.359   1_556  A
C155        C255   1.466       .  S
N156        C157   1.361       .  A
C157        N158   1.361       .  A
C157        C227   1.474       .  S
C159        N160   1.359       .  A
C159        N164   1.355       .  A
C159        C203   1.464       .  S
N160        C161   1.361       .  A
C161        N162   1.361       .  A
C161        C231   1.473       .  S
N162        C163   1.359       .  A
C163        N164   1.355       .  A
C163        C276   1.463       .  S
O165        C181   1.275       .  A
O165       Zn171   2.029       .  S
C166        C189   1.469       .  S
C166        O182   1.277       .  A
C166        O459   1.276       .  A
O167       Cd174   2.059       .  S
O168        C186   1.274       .  A
O168       Cd177   2.070       .  S
O169       Cd173   2.068       .  S
O170       Cd453   2.068       .  S
Zn171       O182   2.034       .  S
Zn171       O184   2.036       .  S
Zn171       O176   1.956       .  S
O172        C183   1.273       .  A
O172       Cd737   2.072       .  S
Cd173       O450   2.068   1_545  S
Cd173       O455   2.071       .  S
Cd173       O316   2.001   1_545  S
Cd174       O178   2.068       .  S
Cd174       O187   2.072       .  S
Cd174       O596   1.999   1_455  S
O175        C185   1.276       .  A
O175       Cd453   2.071       .  S
O176       Cd313   2.001   1_556  S
O176       Cd594   1.999   1_556  S
O176      Cd1017   2.000       .  S
Cd177       O732   2.072   1_455  S
Cd177       O739   2.065       .  S
Cd177      O1016   2.000   1_445  S
O178        C745   1.276   1_455  A
O179        C446   1.276   1_545  A
O179       Cd737   2.065       .  S
C180        C215   1.467       .  S
C180        O744   1.275   1_455  A
O184        C740   1.275       .  A
C185        C208   1.467       .  S
C185        O738   1.276       .  A
C186        C223   1.466       .  S
C186        O327   1.273   1_546  A
O187        C326   1.273       .  A
O188        C764   1.273       .  A
O188       Zn194   2.029       .  S
C189        O205   1.277       .  A
C189        O482   1.275       .  A
O190        C203   1.272       .  A
O190       Cd477   2.064       .  S
O191        C209   1.272       .  A
O191       Cd760   2.070       .  S
O192        C486   1.273       .  A
O192       Cd196   2.074       .  S
O193        C204   1.273       .  A
O193       Cd196   2.058       .  S
Zn194       O205   2.035       .  S
Zn194       O207   2.024       .  S
Zn194       O199   1.954       .  S
O195        C206   1.272       .  A
O195       Cd200   2.058       .  S
Cd196       O198   2.072       .  S
Cd196       O759   2.000   1_455  S
Cd197       O470   2.064   1_545  S
Cd197       O481   2.068       .  S
Cd197       O210   2.062       .  S
Cd197       O479   1.998   1_545  S
O198        C768   1.276   1_455  A
O199       Cd756   2.000       .  S
O199       Cd477   1.998       .  S
O199      Cd1040   1.997       .  S
Cd200       O751   2.070   1_455  S
Cd200       O762   2.062       .  S
Cd200      O1039   1.997   1_445  S
O201        C208   1.275       .  A
O201       Cd477   2.068       .  S
O202        C469   1.275   1_545  A
O202       Cd760   2.062       .  S
C203        O207   1.275       .  A
C204        C221   1.463       .  S
C204        O748   1.273   1_455  A
C206        C229   1.462       .  S
C206        O472   1.273   1_545  A
C208        O758   1.276       .  A
C209        O210   1.273       .  A
C211        N212   1.359       .  A
C211        N216   1.355       .  A
C211        C250   1.467       .  S
N212        C773   1.363   1_455  A
C213        N772   1.363       .  A
C213        N214   1.362       .  A
N214        C775   1.359       .  A
C215        N774   1.359   1_455  A
C215        N216   1.355       .  A
C217        N218   1.359       .  A
C217        N222   1.354       .  A
C217        C274   1.464       .  S
N218        C779   1.362   1_455  A
C219        N778   1.362       .  A
C219        N220   1.362       .  A
N220        C781   1.358       .  A
C221        N780   1.358   1_455  A
C221        N222   1.354       .  A
C223        N224   1.356       .  A
C223        N508   1.359   1_546  A
N224        C225   1.357       .  A
C225        N226   1.360   1_556  A
C225        C236   1.467       .  S
N226        C507   1.361   1_545  A
C227        N506   1.361       .  A
C227        N228   1.361       .  A
N228        C503   1.359   1_554  A
C229        N510   1.358   1_545  A
C229        N234   1.355       .  A
N230        C509   1.358       .  A
N230        C231   1.361       .  A
C231        N512   1.362       .  A
N232        C511   1.362   1_545  A
N232        C233   1.359       .  A
C233        N234   1.354       .  A
C233        C273   1.464       .  S
O235        C251   1.275       .  A
O235       Zn241   2.026       .  S
C236        O252   1.274       .  A
O237       Cd244   2.067       .  S
O238        C256   1.276       .  A
O238       Cd247   2.075       .  S
O239        C253   1.274       .  A
O239       Cd243   2.076       .  S
O240        C251   1.275       .  A
O240       Cd243   2.070       .  S
Zn241       O252   2.021       .  S
Zn241       O254   2.030       .  S
Zn241       O246   1.953       .  S
O242       Cd247   2.067       .  S
Cd243       O245   2.062       .  S
Cd243       O246   2.003       .  S
Cd244       O248   2.081       .  S
Cd244       O257   2.079       .  S
O245        C255   1.273       .  A
Cd247       O249   2.073       .  S
C250        O254   1.274       .  A
C251        C278   1.460       .  S
C256        C259   1.461       .  S
C256        O257   1.276       .  A
O258        C274   1.273       .  A
O258       Zn264   2.028       .  S
C259        O275   1.276       .  A
C259        O272   1.275       .  A
O260        C273   1.272       .  A
O260       Cd267   2.067       .  S
O261        C279   1.272       .  A
O261       Cd270   2.071       .  S
O262        C276   1.273       .  A
O262       Cd266   2.073       .  S
O263        C274   1.273       .  A
O263       Cd266   2.063       .  S
Zn264       O275   2.031       .  S
Zn264       O277   2.023       .  S
Zn264       O269   1.952       .  S
O265        C276   1.273       .  A
O265       Cd270   2.065       .  S
Cd266       O268   2.076       .  S
Cd266       O269   2.001       .  S
Cd267       O271   2.072       .  S
Cd267       O280   2.063       .  S
Cd267       O269   2.001       .  S
O268        C278   1.276       .  A
O269       Cd270   2.003       .  S
Cd270       O272   2.071       .  S
O271        C278   1.275       .  A
C273        O277   1.274       .  A
C279        O280   1.273       .  A
C281        N422   1.359       .  A
C281        N286   1.356       .  A
C281        C533   1.466       .  S
N282        C421   1.359       .  A
N282        C283   1.362       .  A
C283        N284   1.361       .  A
C283        C353   1.474       .  S
N284        C425   1.359       .  A
C285        N424   1.359       .  A
C285        N286   1.355       .  A
C285        C463   1.465       .  S
C287        N288   1.359       .  A
C287        N292   1.354       .  A
C287        C419   1.462       .  S
N288        C289   1.362       .  A
C289        N290   1.361       .  A
C289        C359   1.472       .  S
N290        C291   1.358       .  A
C291        N292   1.354       .  A
C291        C349   1.462       .  S
C293        N294   1.356       .  A
C293        N298   1.360       .  A
C293        C321   1.467       .  S
N294        C295   1.357       .  A
C295        N296   1.359       .  A
C295        C395   1.466       .  S
N296        C297   1.361       .  A
C297        N298   1.361       .  A
C297        C367   1.474       .  S
C299        N300   1.359       .  A
C299        N304   1.355       .  A
C299        C343   1.464       .  S
N300        C301   1.361       .  A
C301        N302   1.361       .  A
C301        C371   1.473       .  S
N302        C303   1.359       .  A
C303        N304   1.355       .  A
C303        C416   1.463       .  S
O305        C321   1.275       .  A
O305       Zn311   2.029       .  S
C306        C329   1.469       .  S
C306        O322   1.277       .  A
O307        C460   1.273   1_554  A
O307       Cd314   2.059       .  S
O308        C326   1.274       .  A
O308       Cd317   2.070       .  S
O309        C463   1.274   1_554  A
O309       Cd313   2.068       .  S
O310        C461   1.272   1_554  A
Zn311       O322   2.034       .  S
Zn311       O324   2.036       .  S
Zn311       O316   1.956       .  S
O312        C323   1.273       .  A
O312       Cd877   2.072       .  S
Cd314       O318   2.068       .  S
Cd314       O327   2.072       .  S
Cd314      O1016   1.999   1_454  S
O315        C325   1.276   1_545  A
O316      Cd1014   1.999       .  S
O316       Cd597   2.000   1_565  S
Cd317       O872   2.072   1_455  S
Cd317       O879   2.065       .  S
Cd317       O596   2.000   1_455  S
O318        C885   1.276   1_455  A
O319       Cd877   2.065       .  S
C320        C355   1.467       .  S
C320        O447   1.273       .  A
C320        O884   1.275   1_455  A
C321        O450   1.272       .  A
C323        C425   1.465       .  S
C323        O449   1.274       .  A
O324        C880   1.275       .  A
C325        C348   1.467       .  S
C325        O878   1.276       .  A
C326        C363   1.466       .  S
O328        C904   1.273       .  A
O328       Zn334   2.029       .  S
C329        O345   1.277       .  A
O330        C343   1.272       .  A
O331        C349   1.272       .  A
O331       Cd900   2.070       .  S
O332       Cd336   2.074       .  S
O333        C344   1.273       .  A
O333       Cd336   2.058       .  S
Zn334       O345   2.035       .  S
Zn334       O347   2.024       .  S
Zn334       O339   1.954       .  S
O335        C346   1.272       .  A
O335       Cd340   2.058       .  S
Cd336       O338   2.072       .  S
Cd336       O899   2.000   1_455  S
Cd337       O350   2.062       .  S
O338        C908   1.276   1_455  A
O339       Cd896   2.000       .  S
O339       Cd620   1.997   1_565  S
Cd340       O891   2.070   1_455  S
Cd340       O902   2.062       .  S
Cd340       O619   1.997   1_455  S
O341        C348   1.275   1_545  A
O342       Cd900   2.062       .  S
C343        O347   1.275       .  A
C344        C361   1.463       .  S
C344        O888   1.273   1_455  A
C346        C369   1.462       .  S
C348        O898   1.276       .  A
C349        O350   1.273       .  A
C351        N352   1.359       .  A
C351        N356   1.355       .  A
C351        C390   1.467       .  S
N352        C913   1.363   1_455  A
C353        N912   1.363       .  A
C353        N354   1.362       .  A
N354        C915   1.359       .  A
C355        N914   1.359   1_455  A
C355        N356   1.355       .  A
C357        N358   1.359       .  A
C357        N362   1.354       .  A
C357        C414   1.464       .  S
N358        C919   1.362   1_455  A
C359        N918   1.362       .  A
C359        N360   1.362       .  A
N360        C921   1.358       .  A
C361        N920   1.358   1_455  A
C361        N362   1.354       .  A
C363        N364   1.356       .  A
N364        C365   1.357       .  A
C365        N366   1.360       .  A
C365        C376   1.467       .  S
C367        N368   1.361       .  A
C369        N374   1.355       .  A
N370        C371   1.361       .  A
N372        C373   1.359       .  A
C373        N374   1.354       .  A
C373        C413   1.464       .  S
O375        C391   1.275       .  A
O375       Zn381   2.026       .  S
C376        O392   1.274       .  A
C376        O529   1.273       .  A
O377        C530   1.274   1_554  A
O377       Cd384   2.067       .  S
O378        C396   1.276       .  A
O378       Cd387   2.075       .  S
O379        C393   1.274       .  A
O379       Cd383   2.076       .  S
O380        C391   1.275       .  A
O380       Cd383   2.070       .  S
Zn381       O392   2.021       .  S
Zn381       O394   2.030       .  S
Zn381       O386   1.953       .  S
O382        C533   1.274   1_554  A
O382       Cd387   2.067       .  S
Cd383       O385   2.062       .  S
Cd383       O386   2.003       .  S
Cd384       O388   2.081       .  S
Cd384       O397   2.079       .  S
Cd384       O526   2.003   1_554  S
O385        C395   1.273       .  A
O386       Cd524   2.003       .  S
O386       Cd527   2.001       .  S
Cd387       O389   2.073       .  S
Cd387       O526   2.001   1_554  S
O388        C535   1.274   1_554  A
O389        C516   1.273   1_554  A
C390        O517   1.274       .  A
C390        O394   1.274       .  A
C391        C418   1.460       .  S
C393        C421   1.466       .  S
C393        O522   1.274       .  A
C395        O528   1.274       .  A
C396        C399   1.461       .  S
C396        O397   1.276       .  A
O398        C414   1.273       .  A
O398       Zn404   2.028       .  S
C399        O415   1.276       .  A
C399        O412   1.275       .  A
O400        C413   1.272       .  A
O400       Cd407   2.067       .  S
O401        C419   1.272       .  A
O401       Cd410   2.071       .  S
O402        C416   1.273       .  A
O402       Cd406   2.073       .  S
O403        C414   1.273       .  A
O403       Cd406   2.063       .  S
Zn404       O415   2.031       .  S
Zn404       O417   2.023       .  S
Zn404       O409   1.952       .  S
O405        C416   1.273       .  A
O405       Cd410   2.065       .  S
Cd406       O408   2.076       .  S
Cd406       O409   2.001       .  S
Cd407       O411   2.072       .  S
Cd407       O420   2.063       .  S
Cd407       O409   2.001       .  S
O408        C418   1.276       .  A
O409       Cd410   2.003       .  S
Cd410       O412   2.071       .  S
O411        C418   1.275       .  A
C413        O417   1.274       .  A
C419        O420   1.273       .  A
C421        N426   1.356       .  A
N422        C423   1.362       .  A
C423        N424   1.361       .  A
C423        C493   1.474       .  S
C425        N426   1.355       .  A
C427        N428   1.359       .  A
C427        N432   1.354       .  A
C427        C559   1.462       .  S
N428        C429   1.362       .  A
C429        N430   1.361       .  A
C429        C499   1.472       .  S
N430        C431   1.358       .  A
C431        N432   1.354       .  A
C431        C489   1.462       .  S
C433        N434   1.356       .  A
C433        N438   1.360   1_556  A
C433        C461   1.467       .  S
N434        C435   1.357       .  A
C435        N436   1.359   1_556  A
C435        C535   1.466       .  S
N436        C437   1.361       .  A
C437        N438   1.361       .  A
C437        C507   1.474       .  S
C439        N440   1.359       .  A
C439        N444   1.355       .  A
C439        C483   1.464       .  S
N440        C441   1.361       .  A
C441        N442   1.361       .  A
C441        C511   1.473       .  S
N442        C443   1.359       .  A
C443        N444   1.355       .  A
C443        C556   1.463       .  S
O445        C461   1.275       .  A
O445       Zn451   2.029       .  S
C446        C469   1.469       .  S
C446        O462   1.277       .  A
O447       Cd454   2.059       .  S
O448        C466   1.274       .  A
O448       Cd457   2.070       .  S
O449       Cd453   2.068       .  S
Zn451       O462   2.034       .  S
Zn451       O464   2.036       .  S
Zn451       O456   1.956       .  S
O452        C463   1.273       .  A
O452      Cd1017   2.072       .  S
Cd454       O458   2.068       .  S
Cd454       O467   2.072       .  S
Cd454       O876   1.999   1_455  S
O455        C465   1.276   1_545  A
O456       Cd874   1.999   1_556  S
O456       Cd737   2.000   1_565  S
Cd457      O1012   2.072   1_455  S
Cd457      O1019   2.065       .  S
Cd457       O736   2.000   1_455  S
O458       C1025   1.276   1_455  A
O459      Cd1017   2.065       .  S
C460        C495   1.467       .  S
C460       O1024   1.275   1_455  A
O464       C1020   1.275       .  A
C465        C488   1.467       .  S
C465       O1018   1.276       .  A
C466        C503   1.466       .  S
O468       C1044   1.273       .  A
O468       Zn474   2.029       .  S
C469        O485   1.277       .  A
O470        C483   1.272       .  A
O471        C489   1.272       .  A
O471      Cd1040   2.070       .  S
O472       Cd476   2.074       .  S
O473        C484   1.273       .  A
O473       Cd476   2.058       .  S
Zn474       O485   2.035       .  S
Zn474       O487   2.024       .  S
Zn474       O479   1.954       .  S
O475        C486   1.272       .  A
O475       Cd480   2.058       .  S
Cd476       O478   2.072       .  S
Cd476      O1039   2.000   1_455  S
Cd477       O490   2.062       .  S
O478       C1048   1.276   1_455  A
O479      Cd1036   2.000       .  S
O479       Cd760   1.997   1_565  S
Cd480      O1031   2.070   1_455  S
Cd480      O1042   2.062       .  S
Cd480       O759   1.997   1_455  S
O481        C488   1.275   1_545  A
O482      Cd1040   2.062       .  S
C483        O487   1.275       .  A
C484        C501   1.463       .  S
C484       O1028   1.273   1_455  A
C486        C509   1.462       .  S
C488       O1038   1.276       .  A
C489        O490   1.273       .  A
C491        N492   1.359       .  A
C491        N496   1.355       .  A
C491        C530   1.467       .  S
N492       C1053   1.363   1_455  A
C493       N1052   1.363       .  A
C493        N494   1.362       .  A
N494       C1055   1.359       .  A
C495       N1054   1.359   1_455  A
C495        N496   1.355       .  A
C497        N498   1.359       .  A
C497        N502   1.354       .  A
C497        C554   1.464       .  S
N498       C1059   1.362   1_455  A
C499       N1058   1.362       .  A
C499        N500   1.362       .  A
N500       C1061   1.358       .  A
C501       N1060   1.358   1_455  A
C501        N502   1.354       .  A
C503        N504   1.356       .  A
N504        C505   1.357       .  A
C505        N506   1.360   1_556  A
C505        C516   1.467       .  S
C507        N508   1.361       .  A
C509        N514   1.355       .  A
N510        C511   1.361       .  A
N512        C513   1.359       .  A
C513        N514   1.354       .  A
C513        C553   1.464       .  S
O515        C531   1.275       .  A
O515       Zn521   2.026       .  S
C516        O532   1.274       .  A
O517       Cd524   2.067       .  S
O518        C536   1.276       .  A
O518       Cd527   2.075       .  S
O519        C533   1.274       .  A
O519       Cd523   2.076       .  S
O520        C531   1.275       .  A
O520       Cd523   2.070       .  S
Zn521       O532   2.021       .  S
Zn521       O534   2.030       .  S
Zn521       O526   1.953       .  S
O522       Cd527   2.067       .  S
Cd523       O525   2.062       .  S
Cd523       O526   2.003       .  S
Cd524       O528   2.081       .  S
Cd524       O537   2.079       .  S
O525        C535   1.273       .  A
Cd527       O529   2.073       .  S
C530        O534   1.274       .  A
C531        C558   1.460       .  S
C536        C539   1.461       .  S
C536        O537   1.276       .  A
O538        C554   1.273       .  A
O538       Zn544   2.028       .  S
C539        O555   1.276       .  A
C539        O552   1.275       .  A
O540        C553   1.272       .  A
O540       Cd547   2.067       .  S
O541        C559   1.272       .  A
O541       Cd550   2.071       .  S
O542        C556   1.273       .  A
O542       Cd546   2.073       .  S
O543        C554   1.273       .  A
O543       Cd546   2.063       .  S
Zn544       O555   2.031       .  S
Zn544       O557   2.023       .  S
Zn544       O549   1.952       .  S
O545        C556   1.273       .  A
O545       Cd550   2.065       .  S
Cd546       O548   2.076       .  S
Cd546       O549   2.001       .  S
Cd547       O551   2.072       .  S
Cd547       O560   2.063       .  S
Cd547       O549   2.001       .  S
O548        C558   1.276       .  A
O549       Cd550   2.003       .  S
Cd550       O552   2.071       .  S
O551        C558   1.275       .  A
C553        O557   1.274       .  A
C559        O560   1.273       .  A
C561        N702   1.359       .  A
C561        N566   1.356       .  A
C561        C813   1.466       .  S
N562        C701   1.359       .  A
N562        C563   1.362       .  A
C563        N564   1.361       .  A
C563        C633   1.474       .  S
N564        C705   1.359       .  A
C565        N704   1.359       .  A
C565        N566   1.355       .  A
C565        C743   1.465       .  S
C567        N568   1.359       .  A
C567        N572   1.354       .  A
C567        C699   1.462       .  S
N568        C569   1.362       .  A
C569        N570   1.361       .  A
C569        C639   1.472       .  S
N570        C571   1.358       .  A
C571        N572   1.354       .  A
C571        C629   1.462       .  S
C573        N574   1.356       .  A
C573        N578   1.360       .  A
C573        C601   1.467       .  S
N574        C575   1.357       .  A
C575        N576   1.359       .  A
C575        C675   1.466       .  S
N576        C577   1.361       .  A
C577        N578   1.361       .  A
C577        C647   1.474       .  S
C579        N580   1.359       .  A
C579        N584   1.355       .  A
C579        C623   1.464       .  S
N580        C581   1.361       .  A
C581        N582   1.361       .  A
C581        C651   1.473       .  S
N582        C583   1.359       .  A
C583        N584   1.355       .  A
C583        C696   1.463       .  S
O585        C601   1.275       .  A
O585       Zn591   2.029       .  S
C586        C609   1.469       .  S
C586        O602   1.277       .  A
C586        O879   1.276   1_655  A
O587        C740   1.273   1_554  A
O587       Cd594   2.059       .  S
O588        C606   1.274       .  A
O588       Cd597   2.070       .  S
O589        C743   1.274   1_554  A
O589       Cd593   2.068       .  S
O590        C741   1.272   1_554  A
O590       Cd873   2.068       .  S
Zn591       O602   2.034       .  S
Zn591       O604   2.036       .  S
Zn591       O596   1.956       .  S
O592        C603   1.273       .  A
Cd593       O870   2.068   1_545  S
Cd593       O875   2.071       .  S
Cd593      O1016   2.001   1_544  S
Cd594       O598   2.068       .  S
Cd594       O607   2.072       .  S
O595        C605   1.276       .  A
O595       Cd873   2.071       .  S
O596      Cd1013   2.001       .  S
O599        C866   1.276   1_445  A
C600        C635   1.467       .  S
C600        O727   1.273       .  A
C601        O730   1.272       .  A
C603        C705   1.465       .  S
C603        O729   1.274       .  A
C605        C628   1.467       .  S
C606        C643   1.466       .  S
C606       O1027   1.273   1_545  A
O607       C1026   1.273   1_554  A
O608       Zn614   2.029       .  S
C609        O625   1.277       .  A
C609        O902   1.275   1_655  A
O610        C623   1.272       .  A
O610       Cd897   2.064       .  S
O611        C629   1.272       .  A
O612        C906   1.273       .  A
O612       Cd616   2.074       .  S
O613        C624   1.273       .  A
O613       Cd616   2.058       .  S
Zn614       O625   2.035       .  S
Zn614       O627   2.024       .  S
Zn614       O619   1.954       .  S
O615        C626   1.272       .  A
O615       Cd620   2.058       .  S
Cd616       O618   2.072       .  S
Cd617       O890   2.064   1_545  S
Cd617       O901   2.068       .  S
Cd617       O630   2.062       .  S
Cd617       O899   1.998   1_545  S
O619       Cd897   1.998       .  S
O621        C628   1.275       .  A
O621       Cd897   2.068       .  S
O622        C889   1.275   1_445  A
C623        O627   1.275       .  A
C624        C641   1.463       .  S
C626        C649   1.462       .  S
C626        O892   1.273   1_545  A
C629        O630   1.273       .  A
C631        N632   1.359       .  A
C631        N636   1.355       .  A
C631        C670   1.467       .  S
C633        N634   1.362       .  A
C635        N636   1.355       .  A
C637        N638   1.359       .  A
C637        N642   1.354       .  A
C637        C694   1.464       .  S
C639        N640   1.362       .  A
C641        N642   1.354       .  A
C643        N644   1.356       .  A
C643        N928   1.359   1_545  A
N644        C645   1.357       .  A
C645        N646   1.360       .  A
C645        C656   1.467       .  S
N646        C927   1.361   1_545  A
C647        N926   1.361       .  A
C647        N648   1.361       .  A
N648        C923   1.359       .  A
C649        N930   1.358   1_545  A
C649        N654   1.355       .  A
N650        C929   1.358       .  A
N650        C651   1.361       .  A
C651        N932   1.362       .  A
N652        C931   1.362   1_545  A
N652        C653   1.359       .  A
C653        N654   1.354       .  A
C653        C693   1.464       .  S
O655        C671   1.275       .  A
O655       Zn661   2.026       .  S
C656        O672   1.274       .  A
C656        O809   1.273       .  A
O657        C810   1.274   1_554  A
O657       Cd664   2.067       .  S
O658        C676   1.276       .  A
O658       Cd667   2.075       .  S
O659        C673   1.274       .  A
O659       Cd663   2.076       .  S
O660        C671   1.275       .  A
O660       Cd663   2.070       .  S
Zn661       O672   2.021       .  S
Zn661       O674   2.030       .  S
Zn661       O666   1.953       .  S
O662        C813   1.274   1_554  A
O662       Cd667   2.067       .  S
Cd663       O665   2.062       .  S
Cd663       O666   2.003       .  S
Cd664       O668   2.081       .  S
Cd664       O677   2.079       .  S
Cd664       O806   2.003   1_554  S
O665        C675   1.273       .  A
O666       Cd804   2.003       .  S
O666       Cd807   2.001       .  S
Cd667       O669   2.073       .  S
Cd667       O806   2.001   1_554  S
O668        C815   1.274   1_554  A
O669        C796   1.273   1_554  A
C670        O797   1.274       .  A
C670        O674   1.274       .  A
C671        C698   1.460       .  S
C673        C701   1.466       .  S
C673        O802   1.274       .  A
C675        O808   1.274       .  A
C676        C679   1.461       .  S
C676        O677   1.276       .  A
O678        C694   1.273       .  A
O678       Zn684   2.028       .  S
C679        O695   1.276       .  A
C679        O692   1.275       .  A
O680        C693   1.272       .  A
O680       Cd687   2.067       .  S
O681        C699   1.272       .  A
O681       Cd690   2.071       .  S
O682        C696   1.273       .  A
O682       Cd686   2.073       .  S
O683        C694   1.273       .  A
O683       Cd686   2.063       .  S
Zn684       O695   2.031       .  S
Zn684       O697   2.023       .  S
Zn684       O689   1.952       .  S
O685        C696   1.273       .  A
O685       Cd690   2.065       .  S
Cd686       O688   2.076       .  S
Cd686       O689   2.001       .  S
Cd687       O691   2.072       .  S
Cd687       O700   2.063       .  S
Cd687       O689   2.001       .  S
O688        C698   1.276       .  A
O689       Cd690   2.003       .  S
Cd690       O692   2.071       .  S
O691        C698   1.275       .  A
C693        O697   1.274       .  A
C699        O700   1.273       .  A
C701        N706   1.356       .  A
N702        C703   1.362       .  A
C703        N704   1.361       .  A
C703        C773   1.474       .  S
C705        N706   1.355       .  A
C707        N708   1.359       .  A
C707        N712   1.354       .  A
C707        C839   1.462       .  S
N708        C709   1.362       .  A
C709        N710   1.361       .  A
C709        C779   1.472       .  S
N710        C711   1.358       .  A
C711        N712   1.354       .  A
C711        C769   1.462       .  S
C713        N714   1.356       .  A
C713        N718   1.360   1_556  A
C713        C741   1.467       .  S
N714        C715   1.357       .  A
C715        N716   1.359   1_556  A
C715        C815   1.466       .  S
N716        C717   1.361       .  A
C717        N718   1.361       .  A
C717        C787   1.474       .  S
C719        N720   1.359       .  A
C719        N724   1.355       .  A
C719        C763   1.464       .  S
N720        C721   1.361       .  A
C721        N722   1.361       .  A
C721        C791   1.473       .  S
N722        C723   1.359       .  A
C723        N724   1.355       .  A
C723        C836   1.463       .  S
O725        C741   1.275       .  A
O725       Zn731   2.029       .  S
C726        C749   1.469       .  S
C726        O742   1.277       .  A
C726       O1019   1.276   1_655  A
O727       Cd734   2.059       .  S
O728        C746   1.274       .  A
O728       Cd737   2.070       .  S
O729       Cd733   2.068       .  S
O730      Cd1013   2.068       .  S
Zn731       O742   2.034       .  S
Zn731       O744   2.036       .  S
Zn731       O736   1.956       .  S
O732        C743   1.273       .  A
Cd733      O1010   2.068   1_545  S
Cd733      O1015   2.071       .  S
Cd733       O876   2.001   1_545  S
Cd734       O738   2.068       .  S
Cd734       O747   2.072       .  S
O735        C745   1.276       .  A
O735      Cd1013   2.071       .  S
O736       Cd873   2.001   1_556  S
O739       C1006   1.276   1_445  A
C740        C775   1.467       .  S
C745        C768   1.467       .  S
C746        C783   1.466       .  S
C746        O887   1.273   1_546  A
O747        C886   1.273       .  A
O748       Zn754   2.029       .  S
C749        O765   1.277       .  A
C749       O1042   1.275   1_655  A
O750        C763   1.272       .  A
O750      Cd1037   2.064       .  S
O751        C769   1.272       .  A
O752       C1046   1.273       .  A
O752       Cd756   2.074       .  S
O753        C764   1.273       .  A
O753       Cd756   2.058       .  S
Zn754       O765   2.035       .  S
Zn754       O767   2.024       .  S
Zn754       O759   1.954       .  S
O755        C766   1.272       .  A
O755       Cd760   2.058       .  S
Cd756       O758   2.072       .  S
Cd757      O1030   2.064   1_545  S
Cd757      O1041   2.068       .  S
Cd757       O770   2.062       .  S
Cd757      O1039   1.998   1_545  S
O759      Cd1037   1.998       .  S
O761        C768   1.275       .  A
O761      Cd1037   2.068       .  S
O762       C1029   1.275   1_445  A
C763        O767   1.275       .  A
C764        C781   1.463       .  S
C766        C789   1.462       .  S
C766       O1032   1.273   1_545  A
C769        O770   1.273       .  A
C771        N772   1.359       .  A
C771        N776   1.355       .  A
C771        C810   1.467       .  S
C773        N774   1.362       .  A
C775        N776   1.355       .  A
C777        N778   1.359       .  A
C777        N782   1.354       .  A
C777        C834   1.464       .  S
C779        N780   1.362       .  A
C781        N782   1.354       .  A
C783        N784   1.356       .  A
C783       N1068   1.359   1_546  A
N784        C785   1.357       .  A
C785        N786   1.360   1_556  A
C785        C796   1.467       .  S
N786       C1067   1.361   1_545  A
C787       N1066   1.361       .  A
C787        N788   1.361       .  A
N788       C1063   1.359   1_554  A
C789       N1070   1.358   1_545  A
C789        N794   1.355       .  A
N790       C1069   1.358       .  A
N790        C791   1.361       .  A
C791       N1072   1.362       .  A
N792       C1071   1.362   1_545  A
N792        C793   1.359       .  A
C793        N794   1.354       .  A
C793        C833   1.464       .  S
O795        C811   1.275       .  A
O795       Zn801   2.026       .  S
C796        O812   1.274       .  A
O797       Cd804   2.067       .  S
O798        C816   1.276       .  A
O798       Cd807   2.075       .  S
O799        C813   1.274       .  A
O799       Cd803   2.076       .  S
O800        C811   1.275       .  A
O800       Cd803   2.070       .  S
Zn801       O812   2.021       .  S
Zn801       O814   2.030       .  S
Zn801       O806   1.953       .  S
O802       Cd807   2.067       .  S
Cd803       O805   2.062       .  S
Cd803       O806   2.003       .  S
Cd804       O808   2.081       .  S
Cd804       O817   2.079       .  S
O805        C815   1.273       .  A
Cd807       O809   2.073       .  S
C810        O814   1.274       .  A
C811        C838   1.460       .  S
C816        C819   1.461       .  S
C816        O817   1.276       .  A
O818        C834   1.273       .  A
O818       Zn824   2.028       .  S
C819        O835   1.276       .  A
C819        O832   1.275       .  A
O820        C833   1.272       .  A
O820       Cd827   2.067       .  S
O821        C839   1.272       .  A
O821       Cd830   2.071       .  S
O822        C836   1.273       .  A
O822       Cd826   2.073       .  S
O823        C834   1.273       .  A
O823       Cd826   2.063       .  S
Zn824       O835   2.031       .  S
Zn824       O837   2.023       .  S
Zn824       O829   1.952       .  S
O825        C836   1.273       .  A
O825       Cd830   2.065       .  S
Cd826       O828   2.076       .  S
Cd826       O829   2.001       .  S
Cd827       O831   2.072       .  S
Cd827       O840   2.063       .  S
Cd827       O829   2.001       .  S
O828        C838   1.276       .  A
O829       Cd830   2.003       .  S
Cd830       O832   2.071       .  S
O831        C838   1.275       .  A
C833        O837   1.274       .  A
C839        O840   1.273       .  A
C841        N982   1.359       .  A
C841        N846   1.356       .  A
C841       C1093   1.466       .  S
N842        C981   1.359       .  A
N842        C843   1.362       .  A
C843        N844   1.361       .  A
C843        C913   1.474       .  S
N844        C985   1.359       .  A
C845        N984   1.359       .  A
C845        N846   1.355       .  A
C845       C1023   1.465       .  S
C847        N848   1.359       .  A
C847        N852   1.354       .  A
C847        C979   1.462       .  S
N848        C849   1.362       .  A
C849        N850   1.361       .  A
C849        C919   1.472       .  S
N850        C851   1.358       .  A
C851        N852   1.354       .  A
C851        C909   1.462       .  S
C853        N854   1.356       .  A
C853        N858   1.360       .  A
C853        C881   1.467       .  S
N854        C855   1.357       .  A
C855        N856   1.359       .  A
C855        C955   1.466       .  S
N856        C857   1.361       .  A
C857        N858   1.361       .  A
C857        C927   1.474       .  S
C859        N860   1.359       .  A
C859        N864   1.355       .  A
C859        C903   1.464       .  S
N860        C861   1.361       .  A
C861        N862   1.361       .  A
C861        C931   1.473       .  S
N862        C863   1.359       .  A
C863        N864   1.355       .  A
C863        C976   1.463       .  S
O865        C881   1.275       .  A
O865       Zn871   2.029       .  S
C866        C889   1.469       .  S
C866        O882   1.277       .  A
O867       C1020   1.273   1_554  A
O867       Cd874   2.059       .  S
O868        C886   1.274       .  A
O868       Cd877   2.070       .  S
O869       C1023   1.274   1_554  A
O869       Cd873   2.068       .  S
O870       C1021   1.272   1_554  A
Zn871       O882   2.034       .  S
Zn871       O884   2.036       .  S
Zn871       O876   1.956       .  S
O872        C883   1.273       .  A
Cd874       O878   2.068       .  S
Cd874       O887   2.072       .  S
O875        C885   1.276   1_545  A
C880        C915   1.467       .  S
C880       O1007   1.273       .  A
C881       O1010   1.272       .  A
C883        C985   1.465       .  S
C883       O1009   1.274       .  A
C885        C908   1.467       .  S
C886        C923   1.466       .  S
O888       Zn894   2.029       .  S
C889        O905   1.277       .  A
O890        C903   1.272       .  A
O891        C909   1.272       .  A
O892       Cd896   2.074       .  S
O893        C904   1.273       .  A
O893       Cd896   2.058       .  S
Zn894       O905   2.035       .  S
Zn894       O907   2.024       .  S
Zn894       O899   1.954       .  S
O895        C906   1.272       .  A
O895       Cd900   2.058       .  S
Cd896       O898   2.072       .  S
Cd897       O910   2.062       .  S
O901        C908   1.275   1_545  A
C903        O907   1.275       .  A
C904        C921   1.463       .  S
C906        C929   1.462       .  S
C909        O910   1.273       .  A
C911        N912   1.359       .  A
C911        N916   1.355       .  A
C911        C950   1.467       .  S
C913        N914   1.362       .  A
C915        N916   1.355       .  A
C917        N918   1.359       .  A
C917        N922   1.354       .  A
C917        C974   1.464       .  S
C919        N920   1.362       .  A
C921        N922   1.354       .  A
C923        N924   1.356       .  A
N924        C925   1.357       .  A
C925        N926   1.360       .  A
C925        C936   1.467       .  S
C927        N928   1.361       .  A
C929        N934   1.355       .  A
N930        C931   1.361       .  A
N932        C933   1.359       .  A
C933        N934   1.354       .  A
C933        C973   1.464       .  S
O935        C951   1.275       .  A
O935       Zn941   2.026       .  S
C936        O952   1.274       .  A
C936       O1089   1.273       .  A
O937       C1090   1.274   1_554  A
O937       Cd944   2.067       .  S
O938        C956   1.276       .  A
O938       Cd947   2.075       .  S
O939        C953   1.274       .  A
O939       Cd943   2.076       .  S
O940        C951   1.275       .  A
O940       Cd943   2.070       .  S
Zn941       O952   2.021       .  S
Zn941       O954   2.030       .  S
Zn941       O946   1.953       .  S
O942       C1093   1.274   1_554  A
O942       Cd947   2.067       .  S
Cd943       O945   2.062       .  S
Cd943       O946   2.003       .  S
Cd944       O948   2.081       .  S
Cd944       O957   2.079       .  S
Cd944      O1086   2.003   1_554  S
O945        C955   1.273       .  A
O946      Cd1084   2.003       .  S
O946      Cd1087   2.001       .  S
Cd947       O949   2.073       .  S
Cd947      O1086   2.001   1_554  S
O948       C1095   1.274   1_554  A
O949       C1076   1.273   1_554  A
C950       O1077   1.274       .  A
C950        O954   1.274       .  A
C951        C978   1.460       .  S
C953        C981   1.466       .  S
C953       O1082   1.274       .  A
C955       O1088   1.274       .  A
C956        C959   1.461       .  S
C956        O957   1.276       .  A
O958        C974   1.273       .  A
O958       Zn964   2.028       .  S
C959        O975   1.276       .  A
C959        O972   1.275       .  A
O960        C973   1.272       .  A
O960       Cd967   2.067       .  S
O961        C979   1.272       .  A
O961       Cd970   2.071       .  S
O962        C976   1.273       .  A
O962       Cd966   2.073       .  S
O963        C974   1.273       .  A
O963       Cd966   2.063       .  S
Zn964       O975   2.031       .  S
Zn964       O977   2.023       .  S
Zn964       O969   1.952       .  S
O965        C976   1.273       .  A
O965       Cd970   2.065       .  S
Cd966       O968   2.076       .  S
Cd966       O969   2.001       .  S
Cd967       O971   2.072       .  S
Cd967       O980   2.063       .  S
Cd967       O969   2.001       .  S
O968        C978   1.276       .  A
O969       Cd970   2.003       .  S
Cd970       O972   2.071       .  S
O971        C978   1.275       .  A
C973        O977   1.274       .  A
C979        O980   1.273       .  A
C981        N986   1.356       .  A
N982        C983   1.362       .  A
C983        N984   1.361       .  A
C983       C1053   1.474       .  S
C985        N986   1.355       .  A
C987        N988   1.359       .  A
C987        N992   1.354       .  A
C987       C1119   1.462       .  S
N988        C989   1.362       .  A
C989        N990   1.361       .  A
C989       C1059   1.472       .  S
N990        C991   1.358       .  A
C991        N992   1.354       .  A
C991       C1049   1.462       .  S
C993        N994   1.356       .  A
C993        N998   1.360   1_556  A
C993       C1021   1.467       .  S
N994        C995   1.357       .  A
C995        N996   1.359   1_556  A
C995       C1095   1.466       .  S
N996        C997   1.361       .  A
C997        N998   1.361       .  A
C997       C1067   1.474       .  S
C999       N1000   1.359       .  A
C999       N1004   1.355       .  A
C999       C1043   1.464       .  S
N1000      C1001   1.361       .  A
C1001      N1002   1.361       .  A
C1001      C1071   1.473       .  S
N1002      C1003   1.359       .  A
C1003      N1004   1.355       .  A
C1003      C1116   1.463       .  S
O1005      C1021   1.275       .  A
O1005     Zn1011   2.029       .  S
C1006      C1029   1.469       .  S
C1006      O1022   1.277       .  A
O1007     Cd1014   2.059       .  S
O1008      C1026   1.274       .  A
O1008     Cd1017   2.070       .  S
O1009     Cd1013   2.068       .  S
Zn1011     O1022   2.034       .  S
Zn1011     O1024   2.036       .  S
Zn1011     O1016   1.956       .  S
O1012      C1023   1.273       .  A
Cd1014     O1018   2.068       .  S
Cd1014     O1027   2.072       .  S
O1015      C1025   1.276   1_545  A
C1020      C1055   1.467       .  S
C1025      C1048   1.467       .  S
C1026      C1063   1.466       .  S
O1028     Zn1034   2.029       .  S
C1029      O1045   1.277       .  A
O1030      C1043   1.272       .  A
O1031      C1049   1.272       .  A
O1032     Cd1036   2.074       .  S
O1033      C1044   1.273       .  A
O1033     Cd1036   2.058       .  S
Zn1034     O1045   2.035       .  S
Zn1034     O1047   2.024       .  S
Zn1034     O1039   1.954       .  S
O1035      C1046   1.272       .  A
O1035     Cd1040   2.058       .  S
Cd1036     O1038   2.072       .  S
Cd1037     O1050   2.062       .  S
O1041      C1048   1.275   1_545  A
C1043      O1047   1.275       .  A
C1044      C1061   1.463       .  S
C1046      C1069   1.462       .  S
C1049      O1050   1.273       .  A
C1051      N1052   1.359       .  A
C1051      N1056   1.355       .  A
C1051      C1090   1.467       .  S
C1053      N1054   1.362       .  A
C1055      N1056   1.355       .  A
C1057      N1058   1.359       .  A
C1057      N1062   1.354       .  A
C1057      C1114   1.464       .  S
C1059      N1060   1.362       .  A
C1061      N1062   1.354       .  A
C1063      N1064   1.356       .  A
N1064      C1065   1.357       .  A
C1065      N1066   1.360   1_556  A
C1065      C1076   1.467       .  S
C1067      N1068   1.361       .  A
C1069      N1074   1.355       .  A
N1070      C1071   1.361       .  A
N1072      C1073   1.359       .  A
C1073      N1074   1.354       .  A
C1073      C1113   1.464       .  S
O1075      C1091   1.275       .  A
O1075     Zn1081   2.026       .  S
C1076      O1092   1.274       .  A
O1077     Cd1084   2.067       .  S
O1078      C1096   1.276       .  A
O1078     Cd1087   2.075       .  S
O1079      C1093   1.274       .  A
O1079     Cd1083   2.076       .  S
O1080      C1091   1.275       .  A
O1080     Cd1083   2.070       .  S
Zn1081     O1092   2.021       .  S
Zn1081     O1094   2.030       .  S
Zn1081     O1086   1.953       .  S
O1082     Cd1087   2.067       .  S
Cd1083     O1085   2.062       .  S
Cd1083     O1086   2.003       .  S
Cd1084     O1088   2.081       .  S
Cd1084     O1097   2.079       .  S
O1085      C1095   1.273       .  A
Cd1087     O1089   2.073       .  S
C1090      O1094   1.274       .  A
C1091      C1118   1.460       .  S
C1096      C1099   1.461       .  S
C1096      O1097   1.276       .  A
O1098      C1114   1.273       .  A
O1098     Zn1104   2.028       .  S
C1099      O1115   1.276       .  A
C1099      O1112   1.275       .  A
O1100      C1113   1.272       .  A
O1100     Cd1107   2.067       .  S
O1101      C1119   1.272       .  A
O1101     Cd1110   2.071       .  S
O1102      C1116   1.273       .  A
O1102     Cd1106   2.073       .  S
O1103      C1114   1.273       .  A
O1103     Cd1106   2.063       .  S
Zn1104     O1115   2.031       .  S
Zn1104     O1117   2.023       .  S
Zn1104     O1109   1.952       .  S
O1105      C1116   1.273       .  A
O1105     Cd1110   2.065       .  S
Cd1106     O1108   2.076       .  S
Cd1106     O1109   2.001       .  S
Cd1107     O1111   2.072       .  S
Cd1107     O1120   2.063       .  S
Cd1107     O1109   2.001       .  S
O1108      C1118   1.276       .  A
O1109     Cd1110   2.003       .  S
Cd1110     O1112   2.071       .  S
O1111      C1118   1.275       .  A
C1113      O1117   1.274       .  A
C1119      O1120   1.273       .  A
