geometry optimzed in LAMMPS
_audit_creation_date              2020-11-30 
_audit_creation_method            'lammps2cif' 
_symmetry_space_group_name_H-M    'P1' 
_symmetry_Int_Tables_number       1 
_symmetry_cell_setting            triclinic 
loop_ 
_symmetry_equiv_pos_as_xyz 
  x,y,z 
_cell_length_a                    25.55863453 
_cell_length_b                    50.81746359727411 
_cell_length_c                    31.58193361557046 
_cell_angle_alpha                 89.83362864187205 
_cell_angle_beta                  90.15848542906068 
_cell_angle_gamma                 89.95697578718375 
loop_ 
_atom_site_label 
_atom_site_type_symbol 
_atom_site_fract_x 
_atom_site_fract_y 
_atom_site_fract_z 
_atom_site_charge 
O1          O  0.43016121  0.18794471  0.07216694    -0.75300
O2          O  0.47304173  0.21339902  0.12047338    -0.54200
C3          C  0.44116684  0.19513349  0.11017183     0.78400
O4          O  0.63170187  0.21118925  0.42408300    -0.59900
O5          O  0.57243777  0.22746163  0.37691792    -0.52900
C6          C  0.61413993  0.21451508  0.38635849     0.70400
O7          O  0.62748446  0.20229512  0.06538209    -0.74500
O8          O  0.58205173  0.22401373  0.11656178    -0.55000
C9          C  0.61551082  0.20721819  0.10396740     0.76400
O10         O  0.43245054  0.18867018  0.43011824    -0.59600
O11         O  0.46497397  0.21668718  0.38046789    -0.52700
C12         C  0.43845356  0.19656602  0.39179438     0.73000
Zr13       Zr  0.45443930  0.20090319  0.00048841     2.54700
O14         O  0.48316240  0.15519080  0.00026617    -0.80200
O15         O  0.37606548  0.17733223  0.49493953    -0.93600
Zr16       Zr  0.60548016  0.21940378  0.99609773     2.64700
O17         O  0.63903533  0.17454516  0.99166226    -0.98500
O18         O  0.69386744  0.24384592  0.49790296    -0.80600
O19         O  0.53249857  0.20826928  0.03871497    -0.84000
O20         O  0.53206941  0.21081623  0.45819762    -2.18700
O21         O  0.38160411  0.28579912  0.43701864    -0.67300
O22         O  0.43730585  0.27137995  0.38546899    -0.51900
C23         C  0.39594002  0.28299887  0.39857057     0.71400
O24         O  0.59205200  0.30764399  0.07251945    -0.60300
O25         O  0.55690571  0.27933286  0.12054914    -0.52200
C26         C  0.58381784  0.29952958  0.11046032     0.73200
O27         O  0.59438548  0.30736759  0.42932652    -0.71700
O28         O  0.55220383  0.28287469  0.37945993    -0.50300
C29         C  0.58474032  0.30064793  0.39096044     0.74600
O30         O  0.39305654  0.28327254  0.08022270    -0.67000
O31         O  0.45201809  0.26491576  0.12551744    -0.54200
C32         C  0.40980851  0.27744491  0.11769203     0.73000
Zr33       Zr  0.41675540  0.27601798  0.50560934     2.77500
O34         O  0.40594499  0.32485366  0.00769722    -0.97700
O35         O  0.32424419  0.26452143  0.50620912    -0.78600
Zr36       Zr  0.56598520  0.29707299  0.50044315     2.70100
O37         O  0.53682106  0.34257466  0.49433672    -0.79800
O38         O  0.65565277  0.31478725  0.99913953    -0.98900
Zr39       Zr  0.51544627  0.24654547  0.07907871     2.21500
Zr40       Zr  0.50857094  0.24975743  0.42078357     2.11100
O41         O  0.48882548  0.28779415  0.46195274    -2.47600
O42         O  0.49548952  0.28672365  0.04453554    -0.79600
O43         O  0.43469441  0.23857833  0.46293570    -0.71800
O44         O  0.59134154  0.25685973  0.03885591    -2.32700
O45         O  0.43622219  0.23808211  0.04268432    -2.29000
O46         O  0.58669091  0.26044820  0.45738853    -0.73500
H47         H  0.53855825  0.19623731  0.43928008     0.78500
H48         H  0.62154165  0.25973910  0.05677127     0.79500
H49         H  0.48045454  0.30271699  0.44420697     0.81800
H50         H  0.40724032  0.23465218  0.06145195     0.79400
H51         H  0.71713260  0.21969429  0.99844942     0.42400
H52         H  0.67623756  0.30006274  0.48727049     0.41400
H53         H  0.52740931  0.34426939  0.96934597     0.41100
H54         H  0.42328678  0.33178137  0.49614247     0.39000
H55         H  0.32255054  0.24767669  0.52198145     0.42100
H56         H  0.34420198  0.19893865  0.01418062     0.36900
H57         H  0.52184669  0.15612640  0.00002442     0.43000
H58         H  0.68935896  0.18350506  0.50269576     0.39400
H59         H  0.36345832  0.32499242  0.49450662     0.44400
H60         H  0.36314502  0.16954857  0.01431591     0.43100
H61         H  0.67402493  0.17608523  0.97851595     0.43200
H62         H  0.65661000  0.32925653  0.48898655     0.43600
O63         O  0.41083035  0.43607641  0.06622284    -0.75300
O64         O  0.44645836  0.46291079  0.11675660    -0.54200
C65         C  0.41710911  0.44372187  0.10483584     0.78400
O66         O  0.62764503  0.45032905  0.42820746    -0.59900
O67         O  0.57724660  0.46861454  0.37579928    -0.52900
C68         C  0.61648677  0.45492469  0.38901187     0.70400
O69         O  0.61989775  0.44838308  0.07035948    -0.74500
O70         O  0.56602465  0.46712581  0.11930871    -0.55000
C71         C  0.60609624  0.45295260  0.10899097     0.76400
O72         O  0.40855348  0.43787430  0.42200786    -0.59600
O73         O  0.45605611  0.45987531  0.37203598    -0.52700
C74         C  0.42033176  0.44325268  0.38319648     0.73000
Zr75       Zr  0.43661389  0.44903751  0.99432863     2.54700
O76         O  0.45741456  0.40227968  0.99240071    -0.80200
O77         O  0.34451341  0.44253186  0.49254830    -0.93600
Zr78       Zr  0.58958941  0.45804848  0.99792710     2.64700
O79         O  0.59114750  0.41010208  0.99857533    -0.98500
O80         O  0.68562930  0.46927703  0.50162798    -0.80600
O81         O  0.51183523  0.45365548  0.03833838    -0.84000
O82         O  0.51750325  0.45351502  0.45443456    -2.18700
O83         O  0.38481699  0.03196699  0.41856755    -0.67300
O84         O  0.44109262  0.01447975  0.37059835    -0.51900
C85         C  0.39845711  0.02682719  0.38029649     0.71400
O86         O  0.60906288  0.04647280  0.06824432    -0.60300
O87         O  0.56117121  0.02432722  0.11792550    -0.52200
C88         C  0.59768439  0.04061821  0.10707210     0.73200
O89         O  0.60368745  0.04759417  0.42563635    -0.71700
O90         O  0.56571694  0.02223903  0.37431359    -0.50300
C91         C  0.59694845  0.04055022  0.38686409     0.74600
O92         O  0.38897233  0.03999240  0.05858330    -0.67000
O93         O  0.43744249  0.02138128  0.11186426    -0.54200
C94         C  0.39963125  0.03585551  0.09768414     0.73000
Zr95       Zr  0.42082591  0.02617107  0.48972561     2.77500
O96         O  0.43080912  0.07632881  0.98665161    -0.97700
O97         O  0.32941106  0.02876440  0.99257477    -0.78600
Zr98       Zr  0.57349578  0.03634576  0.49674160     2.70100
O99         O  0.55465171  0.08333955  0.49559755    -0.79800
O100        O  0.67072001  0.04500158  0.99770846    -0.98900
Zr101      Zr  0.50220571  0.49338763  0.07838388     2.21500
Zr102      Zr  0.50775538  0.49236594  0.41196153     2.11100
O103        O  0.49923459  0.03157770  0.45112126    -2.47600
O104        O  0.49872189  0.03315842  0.03592312    -0.79600
O105        O  0.42924109  0.48731936  0.45112121    -0.71800
O106        O  0.58091164  0.49710301  0.03828062    -2.32700
O107        O  0.42633070  0.48820277  0.03433050    -2.29000
O108        O  0.58288248  0.49830230  0.45648007    -0.73500
H109        H  0.52205499  0.43822334  0.43675815     0.78500
H110        H  0.61104965  0.49868879  0.05657066     0.79500
H111        H  0.49619062  0.04649769  0.43221750     0.81800
H112        H  0.39518014  0.48675973  0.05141141     0.79400
H113        H  0.69262437  0.47909213  0.99265701     0.42400
H114        H  0.68224339  0.02764964  0.48221798     0.41400
H115        H  0.58377831  0.09086351  0.00981136     0.41100
H116        H  0.38551941  0.07926978  0.49588679     0.39000
H117        H  0.32073244  0.00174574  0.48604008     0.42100
H118        H  0.32908988  0.45245383  0.01843627     0.36900
H119        H  0.42411645  0.39361918  0.98450451     0.43000
H120        H  0.58446115  0.40625320  0.52486425     0.39400
H121        H  0.44663928  0.08038308  0.49951264     0.44400
H122        H  0.33815832  0.42324431  0.00434850     0.43100
H123        H  0.57298878  0.40473424  0.97226834     0.43200
H124        H  0.67490386  0.05830405  0.48087573     0.43600
O125        O  0.91456495  0.30152461  0.06164178    -0.75300
O126        O  0.95300740  0.27728217  0.11420721    -0.54200
C127        C  0.92473661  0.29666040  0.10087652     0.78400
O128        O  0.91827560  0.18610124  0.42564125    -0.59900
O129        O  0.95482082  0.21183450  0.37442558    -0.52900
C130        C  0.92662508  0.19228969  0.38661363     0.70400
O131        O  0.91953966  0.18896945  0.06738128    -0.74500
O132        O  0.95814754  0.21381670  0.11853420    -0.55000
C133        C  0.92931827  0.19417903  0.10648751     0.76400
O134        O  0.92531659  0.30248209  0.42250417    -0.59600
O135        O  0.95940231  0.27635989  0.37137292    -0.52700
C136        C  0.93548047  0.29745293  0.38347280     0.73000
Zr137      Zr  0.92908338  0.28072600  0.99239452     2.54700
O138        O  0.83939311  0.26467435  0.99014913    -0.80200
O139        O  0.88669108  0.32401472  0.48415458    -0.93600
Zr140      Zr  0.93738765  0.20432358  0.99586496     2.64700
O141        O  0.84222932  0.20743720  0.99630389    -0.98500
O142        O  0.93005558  0.15734369  0.50017465    -0.80600
O143        O  0.93187460  0.24331385  0.03748792    -0.84000
O144        O  0.93036605  0.24239040  0.45048182    -2.18700
O145        O  0.09894947  0.30039266  0.41829544    -0.67300
O146        O  0.06190962  0.27343847  0.36931419    -0.51900
C147        C  0.08892255  0.29372329  0.37983691     0.71400
O148        O  0.11318055  0.19364138  0.07177284    -0.60300
O149        O  0.07001829  0.21847452  0.12072693    -0.52200
C150        C  0.10145765  0.19963732  0.11032544     0.73200
O151        O  0.11240576  0.19161444  0.42592540    -0.71700
O152        O  0.06740521  0.21277446  0.37332125    -0.50300
C153        C  0.10115407  0.19580540  0.38674236     0.74600
O154        O  0.09956693  0.30439874  0.05941772    -0.67000
O155        O  0.06131518  0.28216051  0.11365863    -0.54200
C156        C  0.08921434  0.30138598  0.09876052     0.73000
Zr157      Zr  0.08547570  0.28417474  0.49018647     2.77500
O158        O  0.17919862  0.27583788  0.49382528    -0.97700
O159        O  0.09575554  0.33168485  0.98519009    -0.78600
Zr160      Zr  0.09210211  0.20787997  0.49659681     2.70100
O161        O  0.18565992  0.21687252  0.49635751    -0.79800
O162        O  0.09791640  0.15989421  0.00200609    -0.98900
Zr163      Zr  0.01107504  0.24653428  0.07859621     2.21500
Zr164      Zr  0.01005850  0.24315611  0.41096657     2.11100
O165        O  0.08990125  0.24498198  0.45066471    -2.47600
O166        O  0.09046244  0.24751139  0.03815944    -0.79600
O167        O  0.00685543  0.28253485  0.45110198    -0.71800
O168        O  0.01428506  0.20681265  0.03810668    -2.32700
O169        O  0.00731113  0.28412234  0.03229397    -2.29000
O170        O  0.01440693  0.20502000  0.45526225    -0.73500
H171        H  0.90026801  0.24149439  0.43205673     0.78500
H172        H  0.01575630  0.19158331  0.05638186     0.79500
H173        H  0.12001975  0.24522899  0.43225382     0.81800
H174        H  0.00619627  0.30046477  0.04765345     0.79400
H175        H  0.96961888  0.15108989  0.00661956     0.42400
H176        H  0.08663912  0.15293939  0.47721358     0.41400
H177        H  0.19355918  0.22736573  0.02101603     0.41100
H178        H  0.19541062  0.29217446  0.48288154     0.39000
H179        H  0.07086305  0.33914499  0.47697416     0.42100
H180        H  0.91098251  0.33632426  0.99481458     0.36900
H181        H  0.82655334  0.26959952  0.96158997     0.43000
H182        H  0.82890497  0.19270948  0.48108468     0.39400
H183        H  0.18748597  0.27583846  0.52447787     0.44400
H184        H  0.85709717  0.32340100  0.00691073     0.43100
H185        H  0.83136306  0.19907591  0.02323294     0.43200
H186        H  0.14568689  0.15886094  0.48727182     0.43600
C187        C  0.27271102  0.12619461  0.20737253     0.45500
H188        H  0.27216203  0.13039244  0.17279512    -0.03600
C189        C  0.27275778  0.11706005  0.28771458     0.45500
H190        H  0.27079914  0.11355720  0.32223271    -0.03600
C191        C  0.31742507  0.14013142  0.23115095    -0.17300
C192        C  0.22255282  0.13565684  0.22877984    -0.17000
C193        C  0.28157545  0.09693294  0.21782578    -0.17400
C194        C  0.31704421  0.13571654  0.27411034    -0.17400
C195        C  0.22193658  0.13078548  0.27157909    -0.16900
C196        C  0.28350609  0.09188417  0.26109932    -0.17300
C197        C  0.75201744  0.12232612  0.20744237     0.45500
H198        H  0.74628557  0.12237795  0.17301705    -0.03600
C199        C  0.75531080  0.12369893  0.28886803     0.45500
H200        H  0.75671746  0.12418691  0.32405888    -0.03600
C201        C  0.71917777  0.14456142  0.22697347    -0.17300
C202        C  0.73104969  0.09672476  0.22798152    -0.17000
C203        C  0.80861831  0.12798312  0.22354393    -0.17400
C204        C  0.71962924  0.14502612  0.27019985    -0.17400
C205        C  0.73236975  0.09772381  0.27157606    -0.16900
C206        C  0.80916614  0.12884063  0.26780197    -0.17300
C207        C  0.26209878  0.35726249  0.20534904     0.45500
H208        H  0.26888676  0.35389169  0.17129154    -0.03600
C209        C  0.25300019  0.36406529  0.28578000     0.45500
H210        H  0.24978847  0.36703221  0.32054159    -0.03600
C211        C  0.28347885  0.33390583  0.23145980    -0.17300
C212        C  0.29245751  0.38149156  0.22143489    -0.17000
C213        C  0.20360924  0.36035410  0.21957089    -0.17400
C214        C  0.27947632  0.33803798  0.27401275    -0.17400
C215        C  0.28706758  0.38550661  0.26416594    -0.16900
C216        C  0.19930231  0.36163222  0.26337916    -0.17300
C217        C  0.76501423  0.36887416  0.28906160     0.45500
H218        H  0.76489519  0.36872887  0.32399254    -0.03600
C219        C  0.75874739  0.36848616  0.20776230     0.45500
H220        H  0.75608294  0.36811977  0.17265949    -0.03600
C221        C  0.72603517  0.34819688  0.27208649    -0.17300
C222        C  0.74439497  0.39526241  0.27090568    -0.17000
C223        C  0.81880498  0.36246795  0.26789540    -0.17400
C224        C  0.72242727  0.34820543  0.22875361    -0.17400
C225        C  0.74158469  0.39525176  0.22723701    -0.16900
C226        C  0.81365587  0.36079327  0.22412864    -0.17300
C227        C  0.17462645  0.35629337  0.14470979    -0.20300
C228        C  0.16013626  0.35549319  0.18730736    -0.06900
C229        C  0.10938872  0.34536615  0.19564195     0.14000
C230        C  0.08736450  0.32705429  0.16709311    -0.20400
C231        C  0.11100440  0.32208201  0.12766405    -0.06900
C232        C  0.15298326  0.33897143  0.11519230     0.14000
C233        C  0.17931436  0.33786376  0.07248395    -0.23700
H234        H  0.20630340  0.36902182  0.13495066     0.15300
H235        H  0.05036154  0.31778188  0.17470366     0.15300
C236        C  0.07370748  0.35729165  0.22820155    -0.23700
H237        H  0.21392786  0.35101738  0.07053249     0.05500
H238        H  0.15178264  0.34439220  0.04750501     0.08700
H239        H  0.19360124  0.31763701  0.06638569     0.08700
H240        H  0.09245090  0.37410958  0.24460573     0.08700
H241        H  0.06073597  0.34220396  0.25136363     0.08700
H242        H  0.03831903  0.36522484  0.21213043     0.05500
C243        C  0.11467123  0.33819514  0.35485871    -0.20300
C244        C  0.10986481  0.31119673  0.34605961    -0.06900
C245        C  0.12675869  0.30182156  0.30625933     0.14000
C246        C  0.15205642  0.31924578  0.27840405    -0.20400
C247        C  0.15983726  0.34597382  0.28822436    -0.06900
C248        C  0.13809388  0.35564973  0.32615529     0.14000
C249        C  0.13793668  0.38437632  0.33690384    -0.23700
H250        H  0.09975288  0.34588543  0.38446228     0.15300
H251        H  0.16655694  0.31178048  0.24892979     0.15300
C252        C  0.12057837  0.27338954  0.29345618    -0.23700
H253        H  0.09734798  0.39075868  0.34402652     0.05500
H254        H  0.15154154  0.39656236  0.31011147     0.08700
H255        H  0.16287385  0.38781020  0.36516246     0.08700
H256        H  0.07847255  0.26837077  0.29076324     0.08700
H257        H  0.13941012  0.26031116  0.31725475     0.08700
H258        H  0.13882801  0.26935745  0.26225561     0.05500
C259        C  0.21340267  0.16208485  0.33113367    -0.20300
C260        C  0.18789630  0.14593388  0.30157227    -0.06900
C261        C  0.13243254  0.14660331  0.29965729     0.14000
C262        C  0.10467565  0.16386866  0.32645926    -0.20400
C263        C  0.13094874  0.18003558  0.35564926    -0.06900
C264        C  0.18611165  0.17935871  0.35737479     0.14000
C265        C  0.21686640  0.19759444  0.38573623    -0.23700
H266        H  0.25548950  0.16206149  0.33285152     0.15300
H267        H  0.06225951  0.16404207  0.32556204     0.15300
C268        C  0.10129935  0.12868685  0.27130512    -0.23700
H269        H  0.25968414  0.19595276  0.38029665     0.05500
H270        H  0.20966438  0.19274203  0.41944941     0.08700
H271        H  0.20531021  0.21831010  0.37937300     0.08700
H272        H  0.12628951  0.11468312  0.25368047     0.08700
H273        H  0.07846396  0.14063337  0.24825718     0.08700
H274        H  0.07375263  0.11688874  0.29074669     0.05500
C275        C  0.15231618  0.19542970  0.17838249    -0.20300
C276        C  0.12601700  0.18323749  0.14461104    -0.06900
C277        C  0.12617472  0.15534594  0.14275716     0.14000
C278        C  0.15581696  0.14068527  0.17216421    -0.20400
C279        C  0.18510122  0.15283437  0.20418494    -0.06900
C280        C  0.18274278  0.18076582  0.20755079     0.14000
C281        C  0.21422777  0.19610804  0.23937211    -0.23700
H282        H  0.15198060  0.21672698  0.18043785     0.15300
H283        H  0.15732350  0.11943084  0.16945399     0.15300
C284        C  0.09453704  0.14074316  0.11011870    -0.23700
H285        H  0.23746115  0.21150021  0.22293901     0.05500
H286        H  0.24226054  0.18364944  0.25689462     0.08700
H287        H  0.18751487  0.20582233  0.26218031     0.08700
H288        H  0.11042418  0.14455591  0.07816966     0.08700
H289        H  0.05299190  0.14709977  0.11157373     0.08700
H290        H  0.09581334  0.11912989  0.11538012     0.05500
C291        C  0.89559163  0.15298895  0.20661302    -0.20300
C292        C  0.85058685  0.13907370  0.19291366    -0.03900
C293        C  0.84376293  0.13837383  0.14829331     0.14000
C294        C  0.86705899  0.15757317  0.12255320    -0.20400
C295        C  0.90478394  0.17537995  0.13803191    -0.06900
C296        C  0.92143834  0.17174235  0.18056518     0.14000
C297        C  0.96686853  0.18689532  0.19870896    -0.23700
H298        H  0.91197857  0.14913514  0.23737559     0.15300
H299        H  0.85739794  0.15732301  0.08912325     0.15300
C300        C  0.82061571  0.11518244  0.12551574    -0.23700
H301        H  0.97546983  0.18098307  0.23190930     0.05500
H302        H  0.95770714  0.20824418  0.19882626     0.08700
H303        H  0.00253631  0.18323449  0.17959980     0.08700
H304        H  0.78486320  0.12112521  0.10783389     0.08700
H305        H  0.81213817  0.09898878  0.14769903     0.08700
H306        H  0.84945242  0.10730969  0.10253593     0.05500
C307        C  0.89712281  0.14849371  0.35990125    -0.20300
C308        C  0.90125553  0.17586106  0.35353673    -0.06900
C309        C  0.87908613  0.18708352  0.31653642     0.14000
C310        C  0.85127150  0.17098236  0.28853551    -0.20400
C311        C  0.84706518  0.14368361  0.29465349    -0.06900
C312        C  0.87094561  0.13226622  0.33066949     0.14000
C313        C  0.86933170  0.10308045  0.33913906    -0.23700
H314        H  0.91451289  0.13965510  0.38788666     0.15300
H315        H  0.83308630  0.17974037  0.26106880     0.15300
C316        C  0.88259316  0.21612362  0.30677954    -0.23700
H317        H  0.90991441  0.09535916  0.34127960     0.05500
H318        H  0.84884043  0.09197899  0.31386968     0.08700
H319        H  0.84904512  0.09927772  0.36957850     0.08700
H320        H  0.92396940  0.22172674  0.30116311     0.08700
H321        H  0.86641884  0.22772232  0.33345878     0.08700
H322        H  0.86022262  0.22146878  0.27778959     0.05500
C323        C  0.90313372  0.33512859  0.28025478    -0.20300
C324        C  0.86526234  0.35313082  0.29501663    -0.06900
C325        C  0.86748087  0.35858591  0.33891010     0.14000
C326        C  0.89057235  0.34023088  0.36662723    -0.20400
C327        C  0.91724730  0.31775277  0.35165332    -0.06900
C328        C  0.92761086  0.31676288  0.30756845     0.14000
C329        C  0.96437706  0.29683179  0.28865725    -0.23700
H330        H  0.91392846  0.33474597  0.24753736     0.15300
H331        H  0.88771612  0.34387736  0.40030698     0.15300
C332        C  0.84975553  0.38445822  0.35714569    -0.23700
H333        H  0.96964367  0.29989780  0.25408388     0.05500
H334        H  0.94869021  0.27666496  0.29312917     0.08700
H335        H  0.00339290  0.29860299  0.30382740     0.08700
H336        H  0.81782546  0.38121427  0.38034658     0.08700
H337        H  0.83655852  0.39841053  0.33220944     0.08700
H338        H  0.88311179  0.39389249  0.37381037     0.05500
C339        C  0.87378832  0.30162689  0.16617293    -0.20300
C340        C  0.90032921  0.31388389  0.13315878    -0.06900
C341        C  0.90218048  0.34175173  0.13183766     0.14000
C342        C  0.87466812  0.35651456  0.16245147    -0.20400
C343        C  0.84649937  0.34415917  0.19505867    -0.06900
C344        C  0.84687467  0.31608757  0.19673503     0.14000
C345        C  0.82162224  0.30010658  0.23084103    -0.23700
H346        H  0.87320092  0.28028503  0.16777937     0.15300
H347        H  0.87536985  0.37780721  0.16104813     0.15300
C348        C  0.93476079  0.35593855  0.09938565    -0.23700
H349        H  0.85180617  0.28861010  0.24822965     0.05500
H350        H  0.79411977  0.28602128  0.21611864     0.08700
H351        H  0.80099196  0.31235636  0.25376308     0.08700
H352        H  0.91969282  0.35188948  0.06715255     0.08700
H353        H  0.97608161  0.34928387  0.10181261     0.08700
H354        H  0.93391149  0.37758111  0.10417383     0.05500
C355        C  0.65834677  0.09513085  0.32225534    -0.20300
C356        C  0.69721301  0.08170098  0.29944264    -0.06900
C357        C  0.70215357  0.05418908  0.30517482     0.14000
C358        C  0.66679073  0.04091928  0.33197599    -0.20400
C359        C  0.62844471  0.05466823  0.35486475    -0.06900
C360        C  0.62450629  0.08217546  0.35010205     0.14000
C361        C  0.58450519  0.09802646  0.37419400    -0.23700
H362        H  0.65468849  0.11610285  0.31900071     0.15300
H363        H  0.67094466  0.01989405  0.33674879     0.15300
C364        C  0.74599295  0.03856779  0.28585899    -0.23700
H365        H  0.58583488  0.11922857  0.36554702     0.05500
H366        H  0.59203262  0.09652881  0.40872725     0.08700
H367        H  0.54460026  0.09060330  0.36709202     0.08700
H368        H  0.77376940  0.05103728  0.26800370     0.08700
H369        H  0.72967110  0.02347583  0.26420367     0.08700
H370        H  0.76854330  0.02856418  0.31136197     0.05500
C371        C  0.64230781  0.08170531  0.20287214    -0.20300
C372        C  0.69695069  0.07827217  0.20226146    -0.06900
C373        C  0.71778063  0.06001385  0.17287573     0.14000
C374        C  0.68456385  0.04788155  0.14277634    -0.20400
C375        C  0.63042422  0.05293211  0.14142433    -0.06900
C376        C  0.60915243  0.06977378  0.17256649     0.14000
C377        C  0.55202164  0.07678051  0.17200083    -0.23700
H378        H  0.62564174  0.09507014  0.22567565     0.15300
H379        H  0.70123747  0.03434944  0.12000472     0.15300
C380        C  0.77448225  0.05204467  0.17334037    -0.23700
H381        H  0.54178675  0.09069702  0.19774226     0.05500
H382        H  0.52783204  0.05881706  0.17592649     0.08700
H383        H  0.54266691  0.08641009  0.14135458     0.08700
H384        H  0.77744316  0.03077163  0.18112316     0.08700
H385        H  0.79777778  0.06307361  0.19703202     0.08700
H386        H  0.79181665  0.05521761  0.14155945     0.05500
C387        C  0.32398423  0.03960991  0.14731634    -0.20300
C388        C  0.36781593  0.05092113  0.12766879    -0.06900
C389        C  0.37742537  0.07790865  0.13255382     0.14000
C390        C  0.34577335  0.09239995  0.15954551    -0.20400
C391        C  0.30619445  0.08050088  0.18409673    -0.06900
C392        C  0.29329625  0.05399467  0.17617480     0.14000
C393        C  0.24589683  0.04143432  0.19586692    -0.23700
H394        H  0.31289440  0.01988245  0.13920554     0.15300
H395        H  0.35515701  0.11286895  0.16356437     0.15300
C396        C  0.42171773  0.09146297  0.10979405    -0.23700
H397        H  0.23996867  0.02105877  0.18416737     0.05500
H398        H  0.21051728  0.05312806  0.18777885     0.08700
H399        H  0.25010978  0.04043731  0.23070563     0.08700
H400        H  0.41513529  0.09066750  0.07509755     0.08700
H401        H  0.45894217  0.08137123  0.11744341     0.08700
H402        H  0.42550721  0.11246364  0.11902611     0.05500
C403        C  0.28377917  0.05824428  0.31878616    -0.20300
C404        C  0.30980417  0.06869436  0.28333220    -0.06900
C405        C  0.36265429  0.06030401  0.27665866     0.14000
C406        C  0.38790204  0.04418592  0.30680608    -0.20400
C407        C  0.36421589  0.03732286  0.34513559    -0.06900
C408        C  0.31004603  0.04303822  0.34983631     0.14000
C409        C  0.27930436  0.03344885  0.38747130    -0.23700
H410        H  0.24331060  0.06375407  0.32395247     0.15300
H411        H  0.42884416  0.03936564  0.30225218     0.15300
C412        C  0.39790277  0.07148944  0.24335813    -0.23700
H413        H  0.23677490  0.03733820  0.38362448     0.05500
H414        H  0.29213061  0.04377168  0.41655374     0.08700
H415        H  0.28459496  0.01187568  0.39127938     0.08700
H416        H  0.38400464  0.09085041  0.23320323     0.08700
H417        H  0.40095664  0.05758752  0.21651103     0.08700
H418        H  0.43793842  0.07492661  0.25601031     0.05500
C419        C  0.65428560  0.41645327  0.20924401    -0.20300
C420        C  0.70837281  0.41398721  0.20110388    -0.06900
C421        C  0.72853186  0.42646716  0.16455064     0.14000
C422        C  0.69451761  0.43975736  0.13638638    -0.20400
C423        C  0.64011601  0.44111554  0.14324508    -0.06900
C424        C  0.62005915  0.42966915  0.18090437     0.14000
C425        C  0.56225862  0.42981161  0.19021753    -0.23700
H426        H  0.63794931  0.40634933  0.23636599     0.15300
H427        H  0.71059156  0.44880315  0.10815840     0.15300
C428        C  0.78625372  0.42590292  0.15511324    -0.23700
H429        H  0.55304515  0.41882846  0.21973441     0.05500
H430        H  0.54049364  0.42042376  0.16378877     0.08700
H431        H  0.54840510  0.45033915  0.19437238     0.08700
H432        H  0.79921085  0.40550158  0.14888954     0.08700
H433        H  0.80845934  0.43390560  0.18244965     0.08700
H434        H  0.79596819  0.43789826  0.12675941     0.05500
C435        C  0.68763275  0.45391017  0.33388826    -0.20300
C436        C  0.64819042  0.44094268  0.35712716    -0.06900
C437        C  0.64048026  0.41383747  0.35097577     0.14000
C438        C  0.67215285  0.40045488  0.32252778    -0.20400
C439        C  0.71173220  0.41267543  0.29904895    -0.06900
C440        C  0.71961880  0.44000215  0.30480824     0.14000
C441        C  0.76251042  0.45421097  0.28167132    -0.23700
H442        H  0.69399285  0.47473275  0.33901725     0.15300
H443        H  0.66512895  0.38001326  0.31889265     0.15300
C444        C  0.59912005  0.39801647  0.37374693    -0.23700
H445        H  0.76506381  0.47514885  0.29143752     0.05500
H446        H  0.75498173  0.45374357  0.24712116     0.08700
H447        H  0.80069836  0.44464580  0.28848514     0.08700
H448        H  0.57361018  0.41000762  0.39429417     0.08700
H449        H  0.61818443  0.38267741  0.39361596     0.08700
H450        H  0.57369418  0.38813154  0.35011161     0.05500
C451        C  0.37645546  0.40097233  0.28849271    -0.20300
C452        C  0.32149953  0.40370301  0.29011867    -0.06900
C453        C  0.30054738  0.42120388  0.32046837     0.14000
C454        C  0.33363713  0.43342084  0.35031185    -0.20400
C455        C  0.38819199  0.43008262  0.34952257    -0.06900
C456        C  0.40986759  0.41395636  0.31756671     0.14000
C457        C  0.46791421  0.40917021  0.31564187    -0.23700
H458        H  0.39327333  0.38745916  0.26588247     0.15300
H459        H  0.31661270  0.44622635  0.37399507     0.15300
C460        C  0.24364962  0.42845118  0.32099987    -0.23700
H461        H  0.47842440  0.39541830  0.28973084     0.05500
H462        H  0.48134301  0.40044421  0.34603985     0.08700
H463        H  0.48877627  0.42800237  0.31004457     0.08700
H464        H  0.22581120  0.42176451  0.35112823     0.08700
H465        H  0.22226170  0.42001596  0.29374278     0.08700
H466        H  0.23963238  0.45016627  0.31864414     0.05500
C467        C  0.31711473  0.42452766  0.18872649    -0.20300
C468        C  0.32736634  0.39756905  0.19323127    -0.06900
C469        C  0.37033494  0.38672508  0.17068202     0.14000
C470        C  0.39965895  0.40247810  0.14312808    -0.20400
C471        C  0.38809820  0.42900388  0.13762425    -0.06900
C472        C  0.34694135  0.44028345  0.16112203     0.14000
C473        C  0.33347158  0.46872433  0.15598249    -0.23700
H474        H  0.28490142  0.43314275  0.20614144     0.15300
H475        H  0.43171951  0.39398044  0.12532879     0.15300
C476        C  0.38717220  0.35884219  0.17590226    -0.23700
H477        H  0.29949302  0.47436627  0.17585689     0.05500
H478        H  0.32354965  0.47284597  0.12233739     0.08700
H479        H  0.36756406  0.48084614  0.16565183     0.08700
H480        H  0.35720048  0.34590840  0.16179149     0.08700
H481        H  0.39360844  0.35494815  0.20999829     0.08700
H482        H  0.42449723  0.35453498  0.15933813     0.05500
C483        C  0.32690434  0.28272517  0.34488510    -0.20300
C484        C  0.36481976  0.29651154  0.36756837    -0.06900
C485        C  0.37260209  0.32352376  0.36115540     0.14000
C486        C  0.34262341  0.33620684  0.33090792    -0.20400
C487        C  0.30621153  0.32245692  0.30639796    -0.06900
C488        C  0.29825877  0.29520386  0.31310613     0.14000
C489        C  0.26060678  0.27855913  0.28827574    -0.23700
H490        H  0.31917890  0.26229034  0.35213909     0.15300
H491        H  0.34848132  0.35695391  0.32597412     0.15300
C492        C  0.41223312  0.33901895  0.38629143    -0.23700
H493        H  0.23163667  0.26971502  0.31014496     0.05500
H494        H  0.28227267  0.26246514  0.27228493     0.08700
H495        H  0.23950802  0.28973844  0.26378279     0.08700
H496        H  0.45161141  0.33026440  0.38224824     0.08700
H497        H  0.40169212  0.33860053  0.42030542     0.08700
H498        H  0.41402559  0.35993734  0.37604275     0.05500
C499        C  0.32310712  0.28565717  0.14757106    -0.20300
C500        C  0.37718747  0.28544408  0.15379003    -0.06900
C501        C  0.39790183  0.29420042  0.19296866     0.14000
C502        C  0.36426462  0.30664909  0.22178616    -0.20400
C503        C  0.31157960  0.31142217  0.21124165    -0.06900
C504        C  0.29003706  0.29814123  0.17608593     0.14000
C505        C  0.23262632  0.29656068  0.16727260    -0.23700
H506        H  0.30654081  0.27695285  0.11920328     0.15300
H507        H  0.38097020  0.31568611  0.24968488     0.15300
C508        C  0.45554788  0.29283247  0.20312270    -0.23700
H509        H  0.21986597  0.27569041  0.16853010     0.05500
H510        H  0.22499927  0.30423726  0.13511791     0.08700
H511        H  0.20939411  0.30767258  0.19026144     0.08700
H512        H  0.47821821  0.30369592  0.17875412     0.08700
H513        H  0.46847107  0.27198448  0.20426274     0.08700
H514        H  0.46464724  0.30172927  0.23437903     0.05500
C515        C  0.67218122  0.31019518  0.36602336    -0.20300
C516        C  0.61841534  0.31231446  0.35888132    -0.06900
C517        C  0.59943603  0.32502820  0.32235932     0.14000
C518        C  0.63545339  0.33565273  0.29374513    -0.20400
C519        C  0.68986841  0.33386585  0.30101600    -0.06900
C520        C  0.70818650  0.32042623  0.33752556     0.14000
C521        C  0.76489606  0.31548781  0.34747593    -0.23700
H522        H  0.68636499  0.29991703  0.39399352     0.15300
H523        H  0.62092387  0.34688814  0.26701521     0.15300
C524        C  0.54174388  0.32897920  0.31498198    -0.23700
H525        H  0.79081411  0.32128750  0.32156671     0.05500
H526        H  0.77608833  0.32635580  0.37658216     0.08700
H527        H  0.77145044  0.29412622  0.35282792     0.08700
H528        H  0.52522981  0.34061018  0.34143111     0.08700
H529        H  0.52157178  0.30969530  0.31298695     0.08700
H530        H  0.53391024  0.33987680  0.28508432     0.05500
C531        C  0.65522947  0.35045013  0.17339092    -0.20300
C532        C  0.68188251  0.33459035  0.20297438    -0.06900
C533        C  0.66883448  0.30741251  0.20568346     0.14000
C534        C  0.63337844  0.29711847  0.17650054    -0.20400
C535        C  0.61104830  0.31285249  0.14479245    -0.06900
C536        C  0.61966059  0.34011300  0.14457623     0.14000
C537        C  0.59110049  0.35850058  0.11476416    -0.23700
H538        H  0.66305175  0.37117319  0.17173822     0.15300
H539        H  0.62548407  0.27613133  0.17705018     0.15300
C540        C  0.69102609  0.28790937  0.23692065    -0.23700
H541        H  0.59953445  0.37946494  0.12196652     0.05500
H542        H  0.54822747  0.35552474  0.11782021     0.08700
H543        H  0.60320702  0.35503462  0.08157296     0.08700
H544        H  0.65911574  0.28038631  0.25745483     0.08700
H545        H  0.72153249  0.29601162  0.25741830     0.08700
H546        H  0.70818430  0.27094924  0.21972984     0.05500
C547        C  0.72018508  0.17888128  0.32631066    -0.20300
C548        C  0.69068419  0.16416107  0.29734219    -0.06900
C549        C  0.63565770  0.16800150  0.29560838     0.14000
C550        C  0.61230820  0.18631633  0.32281588    -0.20400
C551        C  0.64200967  0.20039410  0.35247068    -0.06900
C552        C  0.69698940  0.19738767  0.35305533     0.14000
C553        C  0.73174571  0.21400830  0.38097850    -0.23700
H554        H  0.76193764  0.17600211  0.32799920     0.15300
H555        H  0.57003023  0.18828216  0.32277734     0.15300
C556        C  0.59950866  0.15190235  0.26832085    -0.23700
H557        H  0.77381676  0.21102434  0.37360864     0.05500
H558        H  0.72626801  0.20881359  0.41478328     0.08700
H559        H  0.72266407  0.23517302  0.37596173     0.08700
H560        H  0.62012685  0.13618968  0.25119761     0.08700
H561        H  0.57945386  0.16487583  0.24503147     0.08700
H562        H  0.56957125  0.14219970  0.28844992     0.05500
C563        C  0.65653017  0.15004910  0.16972375    -0.20300
C564        C  0.68929614  0.16231143  0.19928937    -0.06900
C565        C  0.69570110  0.19001695  0.19840009     0.14000
C566        C  0.66977615  0.20439676  0.16717890    -0.20400
C567        C  0.64005817  0.19161541  0.13639352    -0.06900
C568        C  0.63161504  0.16435599  0.13819604     0.14000
C569        C  0.59561084  0.15041708  0.10762814    -0.23700
H570        H  0.65121329  0.12900953  0.17068182     0.15300
H571        H  0.67446564  0.22561133  0.16574211     0.15300
C572        C  0.73096594  0.20519301  0.22759030    -0.23700
H573        H  0.59233265  0.12909092  0.11499425     0.05500
H574        H  0.61066710  0.15231289  0.07485711     0.08700
H575        H  0.55580023  0.15912034  0.10934660     0.08700
H576        H  0.75928640  0.21693688  0.20880386     0.08700
H577        H  0.75382063  0.19235884  0.24849599     0.08700
H578        H  0.70719852  0.21873485  0.24731448     0.05500
C579        C  0.35450580  0.17781114  0.29849172    -0.20300
C580        C  0.34998793  0.15054072  0.30467941    -0.06900
C581        C  0.37738174  0.13853062  0.33881482     0.14000
C582        C  0.40730883  0.15419035  0.36566520    -0.20400
C583        C  0.41177198  0.18126550  0.35909294    -0.06900
C584        C  0.38645766  0.19316837  0.32424718     0.14000
C585        C  0.39158598  0.22204826  0.31459570    -0.23700
H586        H  0.33290042  0.18730850  0.27322422     0.15300
H587        H  0.42785467  0.14518084  0.39209795     0.15300
C588        C  0.37914847  0.10936379  0.34635074    -0.23700
H589        H  0.36541002  0.22841520  0.28834669     0.05500
H590        H  0.43244400  0.22658571  0.30528756     0.08700
H591        H  0.38145324  0.23338529  0.34316859     0.08700
H592        H  0.39527237  0.09995872  0.31796272     0.08700
H593        H  0.34033672  0.10148652  0.35466185     0.08700
H594        H  0.40552050  0.10394467  0.37301495     0.05500
C595        C  0.33003032  0.17579616  0.18040090    -0.20300
C596        C  0.35388108  0.15738569  0.20728473    -0.06900
C597        C  0.40907187  0.15366565  0.20497065     0.14000
C598        C  0.43703682  0.16647468  0.17293289    -0.20400
C599        C  0.41163343  0.18310767  0.14433579    -0.06900
C600        C  0.35831218  0.18907396  0.14950074     0.14000
C601        C  0.33116393  0.20957458  0.12274393    -0.23700
H602        H  0.28836793  0.17906050  0.18237261     0.15300
H603        H  0.47874340  0.16303271  0.16965894     0.15300
C604        C  0.44049432  0.13613665  0.23378402    -0.23700
H605        H  0.28962397  0.21224974  0.13209889     0.05500
H606        H  0.33195234  0.20373050  0.08900166     0.08700
H607        H  0.35124968  0.22874992  0.12660478     0.08700
H608        H  0.45956004  0.12041972  0.21494002     0.08700
H609        H  0.41716269  0.12685476  0.25866229     0.08700
H610        H  0.47133058  0.14792571  0.24971766     0.05500
O611        O  0.43216270  0.18862589  0.57249791    -0.75300
O612        O  0.47394092  0.21441960  0.62095163    -0.54200
C613        C  0.44216450  0.19617406  0.61048134     0.78400
O614        O  0.63108765  0.20971328  0.92411366    -0.59900
O615        O  0.57317164  0.22699841  0.87683808    -0.52900
C616        C  0.61466195  0.21373424  0.88627604     0.70400
O617        O  0.63312401  0.20623911  0.56543923    -0.74500
O618        O  0.58404682  0.22585264  0.61674043    -0.55000
C619        C  0.62017931  0.21046610  0.60400422     0.76400
O620        O  0.42857408  0.18945811  0.92937240    -0.59600
O621        O  0.46266563  0.21727542  0.87994112    -0.52700
C622        C  0.43544043  0.19738037  0.89116973     0.73000
Zr623      Zr  0.45950915  0.20018385  0.50103253     2.54700
O624        O  0.49868462  0.15648900  0.50394722    -0.80200
O625        O  0.36400992  0.18594212  0.99731256    -0.93600
Zr626      Zr  0.60876478  0.22236006  0.49615977     2.64700
O627        O  0.65593681  0.18107459  0.48727202    -0.98500
O628        O  0.69502984  0.23569947  0.99881512    -0.80600
O629        O  0.53693730  0.20935013  0.53911259    -0.84000
O630        O  0.52813311  0.20995542  0.95753419    -2.18700
O631        O  0.38006499  0.28562075  0.93813854    -0.67300
O632        O  0.43567073  0.27156587  0.88619943    -0.51900
C633        C  0.39398391  0.28293760  0.89953367     0.71400
O634        O  0.58671952  0.31065448  0.57195933    -0.60300
O635        O  0.55310667  0.28159874  0.61962156    -0.52200
C636        C  0.57873329  0.30225456  0.60976150     0.73200
O637        O  0.59456046  0.30672750  0.92911321    -0.71700
O638        O  0.55066975  0.28301065  0.87917476    -0.50300
C639        C  0.58364286  0.30057143  0.89065007     0.74600
O640        O  0.38934082  0.28203229  0.57910085    -0.67000
O641        O  0.44996300  0.26530759  0.62455973    -0.54200
C642        C  0.40679832  0.27703496  0.61663981     0.73000
Zr643      Zr  0.41863935  0.27737373  0.00617160     2.77500
O644        O  0.39536060  0.32254594  0.51193506    -0.97700
O645        O  0.32468169  0.27016237  0.01080016    -0.78600
Zr646      Zr  0.56831342  0.29557231  0.00067477     2.70100
O647        O  0.53447448  0.34041299  0.99957466    -0.79800
O648        O  0.65607049  0.31248119  0.50499861    -0.98900
Zr649      Zr  0.51544838  0.24739827  0.57904130     2.21500
Zr650      Zr  0.50812482  0.24952425  0.92035924     2.11100
O651        O  0.49087562  0.28769767  0.96187341    -2.47600
O652        O  0.49305206  0.28698585  0.54368710    -0.79600
O653        O  0.43364452  0.23992212  0.96280572    -0.71800
O654        O  0.59074626  0.25911178  0.53926436    -2.32700
O655        O  0.43714753  0.23724323  0.54239984    -2.29000
O656        O  0.58666797  0.25838374  0.95787105    -0.73500
H657        H  0.53385707  0.19539096  0.93839511     0.78500
H658        H  0.62040865  0.26265436  0.55741311     0.79500
H659        H  0.48304747  0.30265259  0.94420363     0.81800
H660        H  0.40799726  0.23366200  0.56088204     0.79400
H661        H  0.69917231  0.25031766  0.46861911     0.42400
H662        H  0.65019348  0.33363235  0.00572133     0.41400
H663        H  0.56384338  0.35133397  0.47685846     0.41100
H664        H  0.37253961  0.32733078  0.02297476     0.39000
H665        H  0.31922772  0.25252877  0.99828809     0.42100
H666        H  0.35180468  0.18712751  0.51347833     0.36900
H667        H  0.53582834  0.15918059  0.49629335     0.43000
H668        H  0.61710108  0.16580926  0.96997360     0.39400
H669        H  0.43297737  0.33138887  0.02754971     0.44400
H670        H  0.38154126  0.16022377  0.50937863     0.43100
H671        H  0.63627431  0.16803576  0.50426396     0.43200
H672        H  0.67406141  0.30755391  0.02422370     0.43600
O673        O  0.41144205  0.43637599  0.56525690    -0.75300
O674        O  0.44599740  0.46333185  0.61606619    -0.54200
C675        C  0.41677303  0.44417351  0.60389189     0.78400
O676        O  0.62418064  0.44924627  0.92688368    -0.59900
O677        O  0.57381959  0.46784215  0.87477506    -0.52900
C678        C  0.61289943  0.45397986  0.88772308     0.70400
O679        O  0.62210404  0.44996006  0.57112470    -0.74500
O680        O  0.56660196  0.46797890  0.61953372    -0.55000
C681        C  0.60751801  0.45425594  0.60964833     0.76400
O682        O  0.40613492  0.43792523  0.92224693    -0.59600
O683        O  0.45386091  0.45995793  0.87236911    -0.52700
C684        C  0.41803844  0.44341065  0.88342621     0.73000
Zr685      Zr  0.43888962  0.44921736  0.49370279     2.54700
O686        O  0.45722298  0.40226242  0.49004149    -0.80200
O687        O  0.34243163  0.44167563  0.99472602    -0.93600
Zr688      Zr  0.59229680  0.45988518  0.49857546     2.64700
O689        O  0.60525739  0.41240792  0.50035939    -0.98500
O690        O  0.68465016  0.46059662  0.00011923    -0.80600
O691        O  0.51388888  0.45416620  0.53804522    -0.84000
O692        O  0.51448594  0.45272429  0.95408063    -2.18700
O693        O  0.38841853  0.03488723  0.91959160    -0.67300
O694        O  0.44219755  0.01603042  0.87107914    -0.51900
C695        C  0.40079103  0.02919995  0.88122980     0.71400
O696        O  0.60238125  0.04854031  0.56907355    -0.60300
O697        O  0.55681941  0.02547164  0.61903250    -0.52200
C698        C  0.59181596  0.04250787  0.60798883     0.73200
O699        O  0.60808114  0.04627826  0.92467972    -0.71700
O700        O  0.56651214  0.02246578  0.87328051    -0.50300
C701        C  0.59961772  0.03996552  0.88573059     0.74600
O702        O  0.38505663  0.03831815  0.55723492    -0.67000
O703        O  0.43449754  0.02067728  0.61086403    -0.54200
C704        C  0.39607931  0.03463567  0.59637660     0.73000
Zr705      Zr  0.42456497  0.02852894  0.99057401     2.77500
O706        O  0.41796405  0.07378714  0.48130064    -0.97700
O707        O  0.32625874  0.02076231  0.49110971    -0.78600
Zr708      Zr  0.57728435  0.03552229  0.99618320     2.70100
O709        O  0.55398385  0.08199092  0.99575736    -0.79800
O710        O  0.66799240  0.04259863  0.49861738    -0.98900
Zr711      Zr  0.50209964  0.49375072  0.57808329     2.21500
Zr712      Zr  0.50618948  0.49190685  0.91234338     2.11100
O713        O  0.50259747  0.03237797  0.95090175    -2.47600
O714        O  0.49442447  0.03264009  0.53542589    -0.79600
O715        O  0.42788505  0.48733434  0.95200729    -0.71800
O716        O  0.58084039  0.49859904  0.53866209    -2.32700
O717        O  0.42686222  0.48824263  0.53340202    -2.29000
O718        O  0.58206915  0.49672692  0.95620516    -0.73500
H719        H  0.51818546  0.43754297  0.93608424     0.78500
H720        H  0.61079763  0.50030184  0.55709628     0.79500
H721        H  0.50066583  0.04731925  0.93199336     0.81800
H722        H  0.39551268  0.48652781  0.55018448     0.79400
H723        H  0.69044933  0.48446314  0.48232208     0.42400
H724        H  0.68612085  0.03391939  0.97520600     0.41400
H725        H  0.57834276  0.09099647  0.51713118     0.41100
H726        H  0.43760144  0.08033313  0.95647145     0.39000
H727        H  0.31969584  0.00997970  0.99534605     0.42100
H728        H  0.33092595  0.45289075  0.51664090     0.36900
H729        H  0.49137734  0.40012011  0.50445566     0.43000
H730        H  0.56690026  0.40503340  0.02159003     0.39400
H731        H  0.39462967  0.08258622  0.99147223     0.44400
H732        H  0.33960085  0.42394023  0.50108847     0.43100
H733        H  0.58621394  0.40571610  0.47528454     0.43200
H734        H  0.67382509  0.06326634  0.98699326     0.43600
O735        O  0.91366535  0.30108707  0.56107164    -0.75300
O736        O  0.95389033  0.27736327  0.61340399    -0.54200
C737        C  0.92438369  0.29630411  0.60016251     0.78400
O738        O  0.91948928  0.18632790  0.92506267    -0.59900
O739        O  0.95722050  0.21190756  0.87414698    -0.52900
C740        C  0.92856125  0.19245978  0.88605987     0.70400
O741        O  0.91770533  0.19088733  0.56715055    -0.74500
O742        O  0.95881240  0.21495381  0.61793535    -0.55000
C743        C  0.92852533  0.19586352  0.60611723     0.76400
O744        O  0.92358547  0.30114925  0.92240606    -0.59600
O745        O  0.96162805  0.27584527  0.87196488    -0.52700
C746        C  0.93534689  0.29632583  0.88355040     0.73000
Zr747      Zr  0.92919728  0.28126099  0.49171162     2.54700
O748        O  0.83868845  0.26641226  0.48871621    -0.80200
O749        O  0.88505535  0.32313808  0.98527127    -0.93600
Zr750      Zr  0.93640913  0.20503929  0.49539783     2.64700
O751        O  0.84150210  0.20945292  0.49338481    -0.98500
O752        O  0.93410790  0.15647601  0.99743599    -0.80600
O753        O  0.93241821  0.24397998  0.53693952    -0.84000
O754        O  0.93194159  0.24180810  0.95109339    -2.18700
O755        O  0.09891184  0.30096590  0.91960315    -0.67300
O756        O  0.06493057  0.27306121  0.87060183    -0.51900
C757        C  0.09048991  0.29385992  0.88105704     0.71400
O758        O  0.11217824  0.19270742  0.56897117    -0.60300
O759        O  0.07185563  0.21841092  0.61833607    -0.52200
C760        C  0.10202388  0.19907839  0.60765868     0.73200
O761        O  0.11660918  0.19148545  0.92903581    -0.71700
O762        O  0.07061262  0.21190910  0.87618670    -0.50300
C763        C  0.10507788  0.19531109  0.88979070     0.74600
O764        O  0.09881184  0.30587335  0.55717529    -0.67000
O765        O  0.06311598  0.28268954  0.61154734    -0.54200
C766        C  0.08949408  0.30247048  0.59661833     0.73000
Zr767      Zr  0.08501588  0.28427691  0.99136529     2.77500
O768        O  0.17952525  0.27806650  0.98991596    -0.97700
O769        O  0.10545553  0.33049280  0.47952729    -0.78600
Zr770      Zr  0.09259831  0.20770122  0.99891886     2.70100
O771        O  0.18723976  0.21318177  0.00020897    -0.79800
O772        O  0.10991442  0.16080206  0.49884872    -0.98900
Zr773      Zr  0.01220358  0.24690941  0.57729987     2.21500
Zr774      Zr  0.01207946  0.24282689  0.91197120     2.11100
O775        O  0.09086961  0.24480481  0.95277433    -2.47600
O776        O  0.09124913  0.24737764  0.53655527    -0.79600
O777        O  0.00695667  0.28230787  0.95178059    -0.71800
O778        O  0.01414850  0.20713260  0.53661492    -2.32700
O779        O  0.00777065  0.28464742  0.53130065    -2.29000
O780        O  0.01592945  0.20484524  0.95647466    -0.73500
H781        H  0.90214559  0.24081544  0.93236364     0.78500
H782        H  0.01527532  0.19188900  0.55489500     0.79500
H783        H  0.12129812  0.24504918  0.93472999     0.81800
H784        H  0.00631308  0.30098538  0.54668443     0.79400
H785        H  0.96578095  0.15154093  0.50805302     0.42400
H786        H  0.07966324  0.15355894  0.97630057     0.41400
H787        H  0.19483374  0.21971232  0.52647502     0.41100
H788        H  0.18921634  0.28039629  0.95980346     0.39000
H789        H  0.06236065  0.33907084  0.99566054     0.42100
H790        H  0.91280927  0.33696131  0.49416635     0.36900
H791        H  0.82120426  0.27883282  0.46902570     0.43000
H792        H  0.83044196  0.19505252  0.97410552     0.39400
H793        H  0.19402173  0.29378832  0.00406237     0.44400
H794        H  0.85826368  0.32442503  0.50537719     0.43100
H795        H  0.83047637  0.20871145  0.52339150     0.43200
H796        H  0.13531057  0.15583458  0.99712426     0.43600
C797        C  0.27350678  0.12620517  0.70617389     0.45500
H798        H  0.27279676  0.13013265  0.67151592    -0.03600
C799        C  0.27442225  0.11748954  0.78659458     0.45500
H800        H  0.27335022  0.11415584  0.82122353    -0.03600
C801        C  0.31831468  0.14029430  0.72955490    -0.17300
C802        C  0.22350304  0.13583127  0.72770716    -0.17000
C803        C  0.28245591  0.09704150  0.71702527    -0.17400
C804        C  0.31843286  0.13599005  0.77243445    -0.17400
C805        C  0.22350461  0.13128896  0.77075824    -0.16900
C806        C  0.28484367  0.09221337  0.76027103    -0.17300
C807        C  0.75419063  0.12274635  0.70560875     0.45500
H808        H  0.74853543  0.12284649  0.67113597    -0.03600
C809        C  0.75699946  0.12401007  0.78709326     0.45500
H810        H  0.75808591  0.12441106  0.82228698    -0.03600
C811        C  0.72257815  0.14537713  0.72479877    -0.17300
C812        C  0.73144467  0.09746699  0.72601651    -0.17000
C813        C  0.81089434  0.12795041  0.72224880    -0.17400
C814        C  0.72249045  0.14584827  0.76808620    -0.17400
C815        C  0.73312908  0.09822201  0.76957555    -0.16900
C816        C  0.81135543  0.12869333  0.76658921    -0.17300
C817        C  0.26104099  0.35797735  0.70479058     0.45500
H818        H  0.26726503  0.35458523  0.67065243    -0.03600
C819        C  0.25256236  0.36492978  0.78524151     0.45500
H820        H  0.24962303  0.36805238  0.81998015    -0.03600
C821        C  0.28270327  0.33467923  0.73100736    -0.17300
C822        C  0.29120091  0.38235893  0.72056890    -0.17000
C823        C  0.20275470  0.36090982  0.71917103    -0.17400
C824        C  0.27933069  0.33894122  0.77366361    -0.17400
C825        C  0.28600556  0.38642899  0.76327199    -0.16900
C826        C  0.19871224  0.36222276  0.76307190    -0.17300
C827        C  0.76401886  0.36783424  0.78852716     0.45500
H828        H  0.76420736  0.36714936  0.82347117    -0.03600
C829        C  0.75746876  0.36856975  0.70722626     0.45500
H830        H  0.75469687  0.36873057  0.67210922    -0.03600
C831        C  0.72418965  0.34780408  0.77097134    -0.17300
C832        C  0.74422577  0.39468381  0.77134849    -0.17000
C833        C  0.81743734  0.36109127  0.76701517    -0.17400
C834        C  0.72032790  0.34844057  0.72770120    -0.17400
C835        C  0.74146220  0.39527908  0.72764232    -0.16900
C836        C  0.81211444  0.36000922  0.72321070    -0.17300
C837        C  0.17307882  0.35782108  0.64395557    -0.20300
C838        C  0.15942461  0.35597026  0.68678307    -0.06900
C839        C  0.10956638  0.34491651  0.69514122     0.14000
C840        C  0.08848855  0.32656402  0.66628498    -0.20400
C841        C  0.11059214  0.32321681  0.62587055    -0.06900
C842        C  0.15011724  0.34156067  0.61333764     0.14000
C843        C  0.17095904  0.34383848  0.56879055    -0.23700
H844        H  0.20433261  0.37094768  0.63459488     0.15300
H845        H  0.05270700  0.31627231  0.67428340     0.15300
C846        C  0.07318150  0.35623360  0.72771407    -0.23700
H847        H  0.20261148  0.35871700  0.56610197     0.05500
H848        H  0.13906033  0.35035955  0.54738808     0.08700
H849        H  0.18769246  0.32478529  0.55832214     0.08700
H850        H  0.09095519  0.37324697  0.74430578     0.08700
H851        H  0.06085555  0.34091102  0.75068943     0.08700
H852        H  0.03747153  0.36374878  0.71158576     0.05500
C853        C  0.11657893  0.33845210  0.85594192    -0.20300
C854        C  0.11137109  0.31143772  0.84709584    -0.06900
C855        C  0.12741977  0.30221810  0.80690614     0.14000
C856        C  0.15192148  0.31976287  0.77871649    -0.20400
C857        C  0.15978621  0.34649163  0.78843896    -0.06900
C858        C  0.13935430  0.35601268  0.82695469     0.14000
C859        C  0.14044184  0.38469295  0.83821382    -0.23700
H860        H  0.10254883  0.34609366  0.88585285     0.15300
H861        H  0.16565822  0.31237708  0.74895725     0.15300
C862        C  0.12103398  0.27384140  0.79381912    -0.23700
H863        H  0.10023504  0.39139621  0.84595115     0.05500
H864        H  0.15420284  0.39697344  0.81155418     0.08700
H865        H  0.16612315  0.38775025  0.86616675     0.08700
H866        H  0.07891705  0.26884191  0.79143013     0.08700
H867        H  0.14009485  0.26062205  0.81728378     0.08700
H868        H  0.13887163  0.26993494  0.76241025     0.05500
C869        C  0.21627077  0.16122537  0.83253109    -0.20300
C870        C  0.19012709  0.14641506  0.80143848    -0.06900
C871        C  0.13474218  0.14776814  0.79973895     0.14000
C872        C  0.10783218  0.16459400  0.82781837    -0.20400
C873        C  0.13466817  0.17938982  0.85857244    -0.06900
C874        C  0.18975891  0.17764615  0.86070678     0.14000
C875        C  0.22141353  0.19374860  0.89168518    -0.23700
H876        H  0.25828331  0.16056022  0.83451387     0.15300
H877        H  0.06545842  0.16543678  0.82667469     0.15300
C878        C  0.10267476  0.13093372  0.77037843    -0.23700
H879        H  0.26417750  0.19154660  0.88645448     0.05500
H880        H  0.21332640  0.18726646  0.92456585     0.08700
H881        H  0.21158238  0.21492824  0.88807846     0.08700
H882        H  0.12682237  0.11684562  0.75219036     0.08700
H883        H  0.08072905  0.14368655  0.74789353     0.08700
H884        H  0.07430723  0.11919426  0.78911720     0.05500
C885        C  0.15321463  0.19512751  0.67565854    -0.20300
C886        C  0.12727388  0.18274697  0.64185275    -0.06900
C887        C  0.12808337  0.15483715  0.64021586     0.14000
C888        C  0.15761760  0.14040337  0.67008712    -0.20400
C889        C  0.18596426  0.15275234  0.70254696    -0.06900
C890        C  0.18325214  0.18068428  0.70541217     0.14000
C891        C  0.21386823  0.19625828  0.73746870    -0.23700
H892        H  0.15261343  0.21643001  0.67749895     0.15300
H893        H  0.15961373  0.11915177  0.66752081     0.15300
C894        C  0.09693992  0.13996130  0.60755595    -0.23700
H895        H  0.23791441  0.21135755  0.72110143     0.05500
H896        H  0.24096626  0.18390694  0.75608155     0.08700
H897        H  0.18650928  0.20630311  0.75938942     0.08700
H898        H  0.11304744  0.14361431  0.57560622     0.08700
H899        H  0.05531615  0.14622065  0.60864642     0.08700
H900        H  0.09833220  0.11838519  0.61319708     0.05500
C901        C  0.89639763  0.15427179  0.70591446    -0.20300
C902        C  0.85235976  0.13971122  0.69196650    -0.03900
C903        C  0.84515613  0.13935526  0.64741715     0.14000
C904        C  0.86672744  0.15920306  0.62211625    -0.20400
C905        C  0.90407486  0.17716389  0.63769570    -0.06900
C906        C  0.92116653  0.17347759  0.68009209     0.14000
C907        C  0.96590053  0.18909221  0.69835106    -0.23700
H908        H  0.91310195  0.15049166  0.73656916     0.15300
H909        H  0.85653147  0.15914293  0.58878495     0.15300
C910        C  0.82375854  0.11592516  0.62419819    -0.23700
H911        H  0.97476959  0.18319160  0.73150602     0.05500
H912        H  0.95575538  0.21033235  0.69860088     0.08700
H913        H  0.00174437  0.18588090  0.67924603     0.08700
H914        H  0.78765012  0.12129674  0.60652157     0.08700
H915        H  0.81641520  0.09951425  0.64620188     0.08700
H916        H  0.85322079  0.10873533  0.60115141     0.05500
C917        C  0.90152403  0.14850613  0.85790120    -0.20300
C918        C  0.90356256  0.17603286  0.85267515    -0.06900
C919        C  0.87975738  0.18734645  0.81646675     0.14000
C920        C  0.85148912  0.17120023  0.78877542    -0.20400
C921        C  0.84920680  0.14375347  0.79363349    -0.06900
C922        C  0.87565708  0.13223963  0.82839344     0.14000
C923        C  0.87730350  0.10292210  0.83515441    -0.23700
H924        H  0.92053073  0.13956933  0.88510403     0.15300
H925        H  0.83081584  0.18008339  0.76288239     0.15300
C926        C  0.88205031  0.21648781  0.80728686    -0.23700
H927        H  0.91869562  0.09625725  0.83606567     0.05500
H928        H  0.85718380  0.09192130  0.80957811     0.08700
H929        H  0.85840310  0.09791771  0.86572761     0.08700
H930        H  0.92315772  0.22249547  0.80146814     0.08700
H931        H  0.86586005  0.22772797  0.83434635     0.08700
H932        H  0.85917062  0.22183815  0.77855006     0.05500
C933        C  0.90005326  0.33231232  0.77929118    -0.20300
C934        C  0.86358130  0.35107910  0.79394047    -0.06900
C935        C  0.86692110  0.35702280  0.83763679     0.14000
C936        C  0.89047447  0.33896920  0.86565631    -0.20400
C937        C  0.91632378  0.31613803  0.85117240    -0.06900
C938        C  0.92478514  0.31418949  0.80688634     0.14000
C939        C  0.95957791  0.29337396  0.78795220    -0.23700
H940        H  0.90997871  0.33127214  0.74648623     0.15300
H941        H  0.88884984  0.34317580  0.89922697     0.15300
C942        C  0.85005210  0.38319774  0.85528744    -0.23700
H943        H  0.96278085  0.29541535  0.75301830     0.05500
H944        H  0.94339024  0.27352731  0.79449572     0.08700
H945        H  0.99956131  0.29512761  0.80139752     0.08700
H946        H  0.81844487  0.38038228  0.87891234     0.08700
H947        H  0.83673822  0.39696127  0.83012894     0.08700
H948        H  0.88388126  0.39264649  0.87128675     0.05500
C949        C  0.87169545  0.30087836  0.66449247    -0.20300
C950        C  0.89918832  0.31327205  0.63220201    -0.06900
C951        C  0.90038354  0.34113012  0.63068223     0.14000
C952        C  0.87295302  0.35581039  0.66139982    -0.20400
C953        C  0.84433534  0.34336850  0.69364124    -0.06900
C954        C  0.84378643  0.31526196  0.69453148     0.14000
C955        C  0.81668819  0.29916878  0.72744819    -0.23700
H956        H  0.87097093  0.27952557  0.66579610     0.15300
H957        H  0.87377121  0.37709994  0.66016988     0.15300
C958        C  0.93152607  0.35540562  0.59741646    -0.23700
H959        H  0.84565975  0.28713492  0.74524593     0.05500
H960        H  0.78898154  0.28563781  0.71162554     0.08700
H961        H  0.79598502  0.31149366  0.75011232     0.08700
H962        H  0.91493865  0.35138328  0.56567110     0.08700
H963        H  0.97295184  0.34880458  0.59855152     0.08700
H964        H  0.93071763  0.37703709  0.60224977     0.05500
C965        C  0.66053750  0.09513067  0.82154269    -0.20300
C966        C  0.69839056  0.08184640  0.79746403    -0.06900
C967        C  0.70193240  0.05409134  0.80132035     0.14000
C968        C  0.66726961  0.04064045  0.82859491    -0.20400
C969        C  0.63058082  0.05428807  0.85334921    -0.06900
C970        C  0.62706030  0.08188043  0.84942978     0.14000
C971        C  0.58753205  0.09750247  0.87432297    -0.23700
H972        H  0.65717478  0.11621495  0.81894164     0.15300
H973        H  0.67056867  0.01948590  0.83204031     0.15300
C974        C  0.74333090  0.03823285  0.77917966    -0.23700
H975        H  0.58869853  0.11877092  0.86610007     0.05500
H976        H  0.59564069  0.09566045  0.90872821     0.08700
H977        H  0.54751423  0.09013076  0.86747514     0.08700
H978        H  0.77088268  0.05067049  0.76107947     0.08700
H979        H  0.72455997  0.02404324  0.75721268     0.08700
H980        H  0.76664605  0.02713679  0.80299792     0.05500
C981        C  0.64085869  0.08255169  0.70396285    -0.20300
C982        C  0.69557773  0.07971467  0.70044978    -0.06900
C983        C  0.71463208  0.06202414  0.66949593     0.14000
C984        C  0.67979154  0.05040417  0.64023116    -0.20400
C985        C  0.62550000  0.05476158  0.64179525    -0.06900
C986        C  0.60574651  0.07030764  0.67533186     0.14000
C987        C  0.54796780  0.07507883  0.67993988    -0.23700
H988        H  0.62540735  0.09514984  0.72840017     0.15300
H989        H  0.69529470  0.03747724  0.61604478     0.15300
C990        C  0.77106990  0.05375993  0.66768365    -0.23700
H991        H  0.53913254  0.08767549  0.70771937     0.05500
H992        H  0.52712677  0.05610282  0.68419892     0.08700
H993        H  0.53316607  0.08523154  0.65122120     0.08700
H994        H  0.77384043  0.03231888  0.67423633     0.08700
H995        H  0.79575305  0.06407984  0.69127072     0.08700
H996        H  0.78684171  0.05748164  0.63552352     0.05500
C997        C  0.32070647  0.03930408  0.64618273    -0.20300
C998        C  0.36472931  0.05010005  0.62603291    -0.06900
C999        C  0.37586614  0.07695440  0.63078454     0.14000
C1000       C  0.34582426  0.09179236  0.65847660    -0.20400
C1001       C  0.30604613  0.08034352  0.68334496    -0.06900
C1002       C  0.29151477  0.05404871  0.67552758     0.14000
C1003       C  0.24418425  0.04205109  0.69621182    -0.23700
H1004       H  0.30835886  0.01969941  0.63835142     0.15300
H1005       H  0.35648383  0.11212475  0.66271867     0.15300
C1006       C  0.41985346  0.09001708  0.60687099    -0.23700
H1007       H  0.23691489  0.02175414  0.68465334     0.05500
H1008       H  0.20912276  0.05417670  0.68891020     0.08700
H1009       H  0.24954517  0.04099293  0.73095700     0.08700
H1010       H  0.41144416  0.08949214  0.57243635     0.08700
H1011       H  0.45701034  0.07944021  0.61310051     0.08700
H1012       H  0.42510301  0.11092110  0.61618328     0.05500
C1013       C  0.28565893  0.06003436  0.81960538    -0.20300
C1014       C  0.31092298  0.06914961  0.78287659    -0.06900
C1015       C  0.36346571  0.06030892  0.77600704     0.14000
C1016       C  0.38906179  0.04501021  0.80703635    -0.20400
C1017       C  0.36626261  0.03961686  0.84632492    -0.06900
C1018       C  0.31260078  0.04614135  0.85174619     0.14000
C1019       C  0.28331400  0.03932294  0.89161809    -0.23700
H1020       H  0.24554685  0.06606316  0.82509233     0.15300
H1021       H  0.42960725  0.03954866  0.80207398     0.15300
C1022       C  0.39795200  0.07008684  0.74102132    -0.23700
H1023       H  0.24083444  0.04357425  0.88854770     0.05500
H1024       H  0.29817019  0.05128019  0.91837769     0.08700
H1025       H  0.28775522  0.01803106  0.89876790     0.08700
H1026       H  0.38668270  0.09007907  0.73170771     0.08700
H1027       H  0.39649340  0.05619185  0.71410733     0.08700
H1028       H  0.43944942  0.07164110  0.75135050     0.05500
C1029       C  0.65478621  0.41743535  0.71008874    -0.20300
C1030       C  0.70883798  0.41465397  0.70208659    -0.06900
C1031       C  0.72957843  0.42761744  0.66619580     0.14000
C1032       C  0.69594036  0.44108907  0.63786307    -0.20400
C1033       C  0.64138758  0.44248040  0.64425733    -0.06900
C1034       C  0.62101729  0.43107497  0.68186474     0.14000
C1035       C  0.56327969  0.43172296  0.69128192    -0.23700
H1036       H  0.63805727  0.40724346  0.73696885     0.15300
H1037       H  0.71245219  0.45030602  0.60994934     0.15300
C1038       C  0.78757935  0.42748747  0.65789511    -0.23700
H1039       H  0.55379016  0.42089640  0.72088715     0.05500
H1040       H  0.54112861  0.42246269  0.66495160     0.08700
H1041       H  0.55015917  0.45238054  0.69536139     0.08700
H1042       H  0.80134209  0.40716294  0.65214749     0.08700
H1043       H  0.80869307  0.43571410  0.68563003     0.08700
H1044       H  0.79777960  0.43952109  0.62970056     0.05500
C1045       C  0.68390864  0.45330013  0.83253850    -0.20300
C1046       C  0.64466557  0.44014960  0.85568323    -0.06900
C1047       C  0.63856137  0.41288746  0.85043311     0.14000
C1048       C  0.67248405  0.39943122  0.82381604    -0.20400
C1049       C  0.71141275  0.41188644  0.79986533    -0.06900
C1050       C  0.71740564  0.43944000  0.80453933     0.14000
C1051       C  0.76051396  0.45395167  0.78214974    -0.23700
H1052       H  0.68919165  0.47423352  0.83714919     0.15300
H1053       H  0.66752512  0.37876941  0.82197432     0.15300
C1054       C  0.59630306  0.39704743  0.87205508    -0.23700
H1055       H  0.76151748  0.47502621  0.79128809     0.05500
H1056       H  0.75468001  0.45306394  0.74746833     0.08700
H1057       H  0.79886515  0.44501200  0.79042014     0.08700
H1058       H  0.56894558  0.40918630  0.89078869     0.08700
H1059       H  0.61444532  0.38220677  0.89340150     0.08700
H1060       H  0.57283008  0.38659380  0.84772853     0.05500
C1061       C  0.37516329  0.40088950  0.78890424    -0.20300
C1062       C  0.32045835  0.40464432  0.78895063    -0.06900
C1063       C  0.29947434  0.42316124  0.81766452     0.14000
C1064       C  0.33213704  0.43522710  0.84799503    -0.20400
C1065       C  0.38627652  0.43047915  0.84935729    -0.06900
C1066       C  0.40817413  0.41353124  0.81860766     0.14000
C1067       C  0.46588396  0.40760314  0.81855343    -0.23700
H1068       H  0.39185736  0.38675848  0.76719055     0.15300
H1069       H  0.31517204  0.44886772  0.87046533     0.15300
C1070       C  0.24311502  0.43148069  0.81599632    -0.23700
H1071       H  0.47648784  0.39341475  0.79327992     0.05500
H1072       H  0.47732693  0.39891169  0.84950570     0.08700
H1073       H  0.48842959  0.42596285  0.81317327     0.08700
H1074       H  0.22349100  0.42605116  0.84605677     0.08700
H1075       H  0.22198621  0.42257053  0.78894789     0.08700
H1076       H  0.24091141  0.45316685  0.81187593     0.05500
C1077       C  0.31707823  0.42553029  0.68851211    -0.20300
C1078       C  0.32610411  0.39838705  0.69223899    -0.06900
C1079       C  0.36811320  0.38726927  0.66890970     0.14000
C1080       C  0.39730379  0.40285697  0.64107379    -0.20400
C1081       C  0.38710273  0.42957326  0.63642911    -0.06900
C1082       C  0.34719365  0.44120503  0.66093146     0.14000
C1083       C  0.33495777  0.46986686  0.65661073    -0.23700
H1084       H  0.28566328  0.43437327  0.70657206     0.15300
H1085       H  0.42853982  0.39411453  0.62263561     0.15300
C1086       C  0.38458368  0.35931547  0.67400284    -0.23700
H1087       H  0.30164742  0.47571258  0.67706913     0.05500
H1088       H  0.32448955  0.47423104  0.62315780     0.08700
H1089       H  0.36960106  0.48168970  0.66595245     0.08700
H1090       H  0.35439493  0.34643281  0.66008683     0.08700
H1091       H  0.39131987  0.35542718  0.70806900     0.08700
H1092       H  0.42172162  0.35489456  0.65724722     0.05500
C1093       C  0.32333572  0.28354053  0.84645668    -0.20300
C1094       C  0.36247823  0.29675747  0.86869711    -0.06900
C1095       C  0.37161032  0.32362124  0.86172767     0.14000
C1096       C  0.34200792  0.33662025  0.83138588    -0.20400
C1097       C  0.30548365  0.32317582  0.80647702    -0.06900
C1098       C  0.29621462  0.29607631  0.81375495     0.14000
C1099       C  0.25896451  0.27954969  0.78840546    -0.23700
H1100       H  0.31366014  0.26346710  0.85448241     0.15300
H1101       H  0.34855688  0.35730961  0.82644229     0.15300
C1102       C  0.41261514  0.33856131  0.88627624    -0.23700
H1103       H  0.22937589  0.27090253  0.80986438     0.05500
H1104       H  0.28076017  0.26330211  0.77296965     0.08700
H1105       H  0.23881126  0.29070169  0.76338699     0.08700
H1106       H  0.45133176  0.32918091  0.88170509     0.08700
H1107       H  0.40289607  0.33832231  0.92048906     0.08700
H1108       H  0.41543314  0.35940863  0.87586805     0.05500
C1109       C  0.32022739  0.28593385  0.64692595    -0.20300
C1110       C  0.37441160  0.28544246  0.65278750    -0.06900
C1111       C  0.39572505  0.29470455  0.69149345     0.14000
C1112       C  0.36249781  0.30708893  0.72067056    -0.20400
C1113       C  0.30981518  0.31198139  0.71057531    -0.06900
C1114       C  0.28769146  0.29889116  0.67537374     0.14000
C1115       C  0.23023139  0.29813909  0.66623734    -0.23700
H1116       H  0.30319456  0.27719621  0.61876783     0.15300
H1117       H  0.37956332  0.31619807  0.74838132     0.15300
C1118       C  0.45368922  0.29423574  0.70058034    -0.23700
H1119       H  0.21643601  0.27742388  0.66658176     0.05500
H1120       H  0.22296936  0.30653635  0.63438505     0.08700
H1121       H  0.20748885  0.30901915  0.68977491     0.08700
H1122       H  0.47496620  0.30520317  0.67550889     0.08700
H1123       H  0.46786099  0.27360870  0.70203487     0.08700
H1124       H  0.46323500  0.30360172  0.73138800     0.05500
C1125       C  0.67055466  0.30921133  0.86412009    -0.20300
C1126       C  0.61677925  0.31232907  0.85821707    -0.06900
C1127       C  0.59751662  0.32542222  0.82205928     0.14000
C1128       C  0.63339391  0.33599271  0.79322338    -0.20400
C1129       C  0.68785467  0.33337192  0.79957367    -0.06900
C1130       C  0.70631662  0.31901877  0.83508832     0.14000
C1131       C  0.76284600  0.31249402  0.84325714    -0.23700
H1132       H  0.68492298  0.29834633  0.89144329     0.15300
H1133       H  0.61886341  0.34770299  0.76701551     0.15300
C1134       C  0.53982601  0.32961139  0.81506093    -0.23700
H1135       H  0.78867217  0.31902663  0.81777843     0.05500
H1136       H  0.77581619  0.32173061  0.87331783     0.08700
H1137       H  0.76760747  0.29082000  0.84591504     0.08700
H1138       H  0.52371806  0.34123718  0.84165858     0.08700
H1139       H  0.51938009  0.31039913  0.81303812     0.08700
H1140       H  0.53188407  0.34059857  0.78525556     0.05500
C1141       C  0.65261849  0.35205480  0.67294482    -0.20300
C1142       C  0.67894436  0.33559908  0.70190136    -0.06900
C1143       C  0.66459543  0.30858094  0.70422199     0.14000
C1144       C  0.62802851  0.29905418  0.67543345    -0.20400
C1145       C  0.60593465  0.31529336  0.64429103    -0.06900
C1146       C  0.61604105  0.34240621  0.64431795     0.14000
C1147       C  0.58834095  0.36129651  0.61480698    -0.23700
H1148       H  0.66163687  0.37265420  0.67150303     0.15300
H1149       H  0.61929963  0.27814555  0.67568004     0.15300
C1150       C  0.68639761  0.28835898  0.73446755    -0.23700
H1151       H  0.59783103  0.38210324  0.62230686     0.05500
H1152       H  0.54533889  0.35883564  0.61785607     0.08700
H1153       H  0.60023516  0.35785864  0.58155325     0.08700
H1154       H  0.65445989  0.28088049  0.75501849     0.08700
H1155       H  0.71748966  0.29572682  0.75501814     0.08700
H1156       H  0.70251896  0.27146901  0.71644754     0.05500
C1157       C  0.72236118  0.17852879  0.82608107    -0.20300
C1158       C  0.69359365  0.16512339  0.79510289    -0.06900
C1159       C  0.63871810  0.16938288  0.79278288     0.14000
C1160       C  0.61508896  0.18746692  0.82032713    -0.20400
C1161       C  0.64386035  0.20015720  0.85214926    -0.06900
C1162       C  0.69868854  0.19602643  0.85437010     0.14000
C1163       C  0.73303821  0.21002798  0.88610847    -0.23700
H1164       H  0.76374808  0.17487178  0.82897406     0.15300
H1165       H  0.57294185  0.18993521  0.81920992     0.15300
C1166       C  0.60267379  0.15347917  0.76518236    -0.23700
H1167       H  0.77525366  0.20629944  0.88021889     0.05500
H1168       H  0.72476574  0.20302853  0.91866662     0.08700
H1169       H  0.72648129  0.23159095  0.88396377     0.08700
H1170       H  0.62320097  0.13744364  0.74882336     0.08700
H1171       H  0.58346054  0.16648382  0.74147826     0.08700
H1172       H  0.57205302  0.14408266  0.78501110     0.05500
C1173       C  0.65631307  0.15290873  0.67069286    -0.20300
C1174       C  0.69481693  0.16379302  0.69681957    -0.06900
C1175       C  0.70993749  0.19038088  0.69148937     0.14000
C1176       C  0.68375542  0.20578206  0.66149839    -0.20400
C1177       C  0.64546506  0.19457090  0.63575234    -0.06900
C1178       C  0.63123750  0.16802060  0.64016260     0.14000
C1179       C  0.58957510  0.15565908  0.61272882    -0.23700
H1180       H  0.64626386  0.13234427  0.67383151     0.15300
H1181       H  0.69453849  0.22622850  0.65681787     0.15300
C1182       C  0.75617439  0.20199975  0.71398398    -0.23700
H1183       H  0.58275455  0.13471545  0.62124135     0.05500
H1184       H  0.60157507  0.15643911  0.57901020     0.08700
H1185       H  0.55211599  0.16644768  0.61654398     0.08700
H1186       H  0.79170733  0.19119913  0.70396743     0.08700
H1187       H  0.75075976  0.20088000  0.74866627     0.08700
H1188       H  0.76203728  0.22304907  0.70565218     0.05500
C1189       C  0.35237650  0.17848434  0.79778279    -0.20300
C1190       C  0.35105890  0.15104073  0.80265886    -0.06900
C1191       C  0.38011242  0.13908543  0.83589165     0.14000
C1192       C  0.40878654  0.15493305  0.86320354    -0.20400
C1193       C  0.40957350  0.18217322  0.85826927    -0.06900
C1194       C  0.38194074  0.19417394  0.82477811     0.14000
C1195       C  0.38133237  0.22348376  0.81872473    -0.23700
H1196       H  0.32967968  0.18782132  0.77298166     0.15300
H1197       H  0.43087819  0.14600585  0.88888812     0.15300
C1198       C  0.38418355  0.10989218  0.84232943    -0.23700
H1199       H  0.35275343  0.22979335  0.79414307     0.05500
H1200       H  0.42067314  0.23046123  0.80910244     0.08700
H1201       H  0.37065994  0.23262612  0.84916542     0.08700
H1202       H  0.40055145  0.10097747  0.81358646     0.08700
H1203       H  0.34590158  0.10140243  0.85059166     0.08700
H1204       H  0.41112673  0.10460843  0.86868903     0.05500
C1205       C  0.32964759  0.17533893  0.67776425    -0.20300
C1206       C  0.35408318  0.15777073  0.70574411    -0.06900
C1207       C  0.40958547  0.15524220  0.70507932     0.14000
C1208       C  0.43781065  0.16899086  0.67439067    -0.20400
C1209       C  0.41207327  0.18435082  0.64425787    -0.06900
C1210       C  0.35781628  0.18860714  0.64686739     0.14000
C1211       C  0.32938326  0.20707252  0.61723262    -0.23700
H1212       H  0.28766291  0.17773362  0.67863659     0.15300
H1213       H  0.47997749  0.16672829  0.67270187     0.15300
C1214       C  0.44115174  0.13765880  0.73369649    -0.23700
H1215       H  0.28697758  0.20833650  0.62464139     0.05500
H1216       H  0.33311746  0.20014810  0.58416578     0.08700
H1217       H  0.34609366  0.22712540  0.62002829     0.08700
H1218       H  0.46315393  0.12314860  0.71443903     0.08700
H1219       H  0.41727151  0.12670406  0.75622657     0.08700
H1220       H  0.46943762  0.14969036  0.75207995     0.05500
O1221       O  0.42589288  0.68924634  0.07039484    -0.75300
O1222       O  0.46694296  0.71502444  0.11931121    -0.54200
C1223       C  0.43588373  0.69651694  0.10846878     0.78400
O1224       O  0.62583721  0.71150082  0.42645479    -0.59900
O1225       O  0.56761816  0.72880080  0.37930644    -0.52900
C1226       C  0.60902385  0.71555050  0.38876740     0.70400
O1227       O  0.62202887  0.70457327  0.06572236    -0.74500
O1228       O  0.57713168  0.72676769  0.11666822    -0.55000
C1229       C  0.61056536  0.70994659  0.10427494     0.76400
O1230       O  0.42451507  0.69147385  0.42939777    -0.59600
O1231       O  0.45790977  0.71972860  0.38047589    -0.52700
C1232       C  0.43117394  0.69953559  0.39115781     0.73000
Zr1233     Zr  0.44990634  0.70240706  0.99905188     2.54700
O1234       O  0.48158127  0.65721019  0.99696865    -0.80200
O1235       O  0.35990399  0.68661146  0.49624942    -0.93600
Zr1236     Zr  0.60076934  0.72131118  0.99581542     2.64700
O1237       O  0.63845855  0.67763135  0.98667205    -0.98500
O1238       O  0.69036624  0.73643759  0.50054215    -0.80600
O1239       O  0.52757844  0.70988824  0.03813241    -0.84000
O1240       O  0.52314295  0.71192890  0.45899803    -2.18700
O1241       O  0.37898328  0.79061092  0.44055103    -0.67300
O1242       O  0.43214502  0.77460660  0.38837395    -0.51900
C1243       C  0.39215459  0.78727273  0.40192251     0.71400
O1244       O  0.58966011  0.80858733  0.07157107    -0.60300
O1245       O  0.55323134  0.78084549  0.11981057    -0.52200
C1246       C  0.58151795  0.80054827  0.10951944     0.73200
O1247       O  0.59343035  0.80729528  0.43102773    -0.71700
O1248       O  0.54897407  0.78389566  0.38113517    -0.50300
C1249       C  0.58305088  0.80092922  0.39252651     0.74600
O1250       O  0.38843160  0.78510799  0.08047330    -0.67000
O1251       O  0.44811733  0.76731028  0.12568842    -0.54200
C1252       C  0.40578521  0.77975223  0.11800358     0.73000
Zr1253     Zr  0.41403520  0.77927902  0.50849254     2.77500
O1254       O  0.39013410  0.82506531  0.00959071    -0.97700
O1255       O  0.32109048  0.76873032  0.50931253    -0.78600
Zr1256     Zr  0.56429452  0.79711922  0.50237151     2.70100
O1257       O  0.53048244  0.84192387  0.50016267    -0.79800
O1258       O  0.64783043  0.81871581  0.00483073    -0.98900
Zr1259     Zr  0.51003650  0.74827309  0.07860928     2.21500
Zr1260     Zr  0.50312917  0.75159208  0.42228804     2.11100
O1261       O  0.48643657  0.78971876  0.46409783    -2.47600
O1262       O  0.48969465  0.78841597  0.04419218    -0.79600
O1263       O  0.42827580  0.74209812  0.46427355    -0.71800
O1264       O  0.58572095  0.75860575  0.03839819    -2.32700
O1265       O  0.43110444  0.73934071  0.04199116    -2.29000
O1266       O  0.58174391  0.75993613  0.45975929    -0.73500
H1267       H  0.52880609  0.69738110  0.43982155     0.78500
H1268       H  0.61596930  0.76142067  0.05623406     0.79500
H1269       H  0.47907562  0.80494893  0.44658673     0.81800
H1270       H  0.40227120  0.73587651  0.06075379     0.79400
H1271       H  0.68779187  0.75522861  0.98141822     0.42400
H1272       H  0.65058598  0.83197129  0.51621782     0.41400
H1273       H  0.54882179  0.85184282  0.98153289     0.41100
H1274       H  0.36250874  0.82690166  0.53172479     0.39000
H1275       H  0.31884998  0.75169574  0.52449883     0.42100
H1276       H  0.33847335  0.70038975  0.00440829     0.36900
H1277       H  0.46435099  0.64836499  0.02116628     0.43000
H1278       H  0.66507086  0.67536032  0.50561317     0.39400
H1279       H  0.42253268  0.83276418  0.53473854     0.44400
H1280       H  0.35774712  0.67221976  0.01780081     0.43100
H1281       H  0.61089532  0.66538855  0.99649531     0.43200
H1282       H  0.67355045  0.80334267  0.51876710     0.43600
O1283       O  0.40955210  0.93798091  0.06517264    -0.75300
O1284       O  0.44626577  0.96422591  0.11594680    -0.54200
C1285       C  0.41580375  0.94548615  0.10385678     0.78400
O1286       O  0.62819680  0.94940553  0.42848212    -0.59900
O1287       O  0.57716237  0.96716870  0.37600357    -0.52900
C1288       C  0.61662266  0.95372280  0.38927123     0.70400
O1289       O  0.61959188  0.94774496  0.07110486    -0.74500
O1290       O  0.56618962  0.96712561  0.11977952    -0.55000
C1291       C  0.60579620  0.95257562  0.10968579     0.76400
O1292       O  0.40735565  0.93849959  0.42286712    -0.59600
O1293       O  0.45546909  0.95992121  0.37260189    -0.52700
C1294       C  0.41886570  0.94387397  0.38395273     0.73000
Zr1295     Zr  0.43709312  0.95063976  0.99354830     2.54700
O1296       O  0.45792013  0.90391382  0.98996170    -0.80200
O1297       O  0.34506379  0.94241227  0.49494597    -0.93600
Zr1298     Zr  0.59039711  0.95752458  0.99823218     2.64700
O1299       O  0.58992730  0.90958842  0.99971202    -0.98500
O1300       O  0.68708926  0.96586334  0.50132201    -0.80600
O1301       O  0.51206300  0.95412423  0.03810912    -0.84000
O1302       O  0.51795605  0.95273347  0.45490845    -2.18700
O1303       O  0.38327046  0.53235217  0.41891444    -0.67300
O1304       O  0.43927891  0.51502597  0.37056565    -0.51900
C1305       C  0.39675048  0.52739027  0.38051737     0.71400
O1306       O  0.60123310  0.54800360  0.06911718    -0.60300
O1307       O  0.55592163  0.52467030  0.11892950    -0.52200
C1308       C  0.59053122  0.54191854  0.10798741     0.73200
O1309       O  0.60069824  0.54902298  0.42612842    -0.71700
O1310       O  0.56236388  0.52398256  0.37455873    -0.50300
C1311       C  0.59329894  0.54237676  0.38721590     0.74600
O1312       O  0.38636449  0.53891099  0.06006642    -0.67000
O1313       O  0.43510891  0.52033310  0.11316818    -0.54200
C1314       C  0.39748859  0.53500517  0.09916997     0.73000
Zr1315     Zr  0.41860596  0.52638402  0.49041715     2.77500
O1316       O  0.41624177  0.57415608  0.98412315    -0.97700
O1317       O  0.32438582  0.52228358  0.99575483    -0.78600
Zr1318     Zr  0.57101510  0.53714569  0.49720182     2.70100
O1319       O  0.54887608  0.58378741  0.49762501    -0.79800
O1320       O  0.66743450  0.53975780  0.99700643    -0.98900
Zr1321     Zr  0.50438751  0.99399115  0.07795207     2.21500
Zr1322     Zr  0.50912404  0.99159148  0.41212738     2.11100
O1323       O  0.49688268  0.53215535  0.45159331    -2.47600
O1324       O  0.49372903  0.53229457  0.03606042    -0.79600
O1325       O  0.43070919  0.98687204  0.45127311    -0.71800
O1326       O  0.58327675  0.99675958  0.03787974    -2.32700
O1327       O  0.42885846  0.99003544  0.03319004    -2.29000
O1328       O  0.58420173  0.99722894  0.45663756    -0.73500
H1329       H  0.52220680  0.93730730  0.43742876     0.78500
H1330       H  0.61348032  0.99782949  0.05617660     0.79500
H1331       H  0.49367342  0.54710526  0.43279134     0.81800
H1332       H  0.39738419  0.98895027  0.04994493     0.79400
H1333       H  0.69321066  0.97863683  0.99233600     0.42400
H1334       H  0.67990120  0.53602105  0.47654852     0.41400
H1335       H  0.52618031  0.58601462  0.98167909     0.41100
H1336       H  0.42631159  0.57837130  0.45590778     0.39000
H1337       H  0.31808722  0.50243845  0.49558718     0.42100
H1338       H  0.32920490  0.95434785  0.01662147     0.36900
H1339       H  0.43557023  0.89700784  0.96687480     0.43000
H1340       H  0.63933241  0.90799617  0.50206675     0.39400
H1341       H  0.37484971  0.57777341  0.48260358     0.44400
H1342       H  0.33921084  0.92457974  0.00623344     0.43100
H1343       H  0.62673095  0.90462858  0.00551772     0.43200
H1344       H  0.66802412  0.56476079  0.49181256     0.43600
O1345       O  0.91103670  0.80180107  0.06100270    -0.75300
O1346       O  0.95066225  0.77781513  0.11329432    -0.54200
C1347       C  0.92183915  0.79702123  0.10011512     0.78400
O1348       O  0.91315431  0.68835889  0.42487943    -0.59900
O1349       O  0.95211822  0.71357954  0.37417341    -0.52900
C1350       C  0.92234643  0.69449373  0.38593932     0.70400
O1351       O  0.91511333  0.69027175  0.06625975    -0.74500
O1352       O  0.95367188  0.71509424  0.11749746    -0.55000
C1353       C  0.92417841  0.69576803  0.10535638     0.76400
O1354       O  0.92557852  0.80380261  0.42395617    -0.59600
O1355       O  0.95864600  0.77750758  0.37263412    -0.52700
C1356       C  0.93566156  0.79877031  0.38486749     0.73000
Zr1357     Zr  0.92561738  0.78078440  0.99217030     2.54700
O1358       O  0.83678174  0.76368064  0.98783644    -0.80200
O1359       O  0.87943013  0.82329798  0.48489938    -0.93600
Zr1360     Zr  0.93554274  0.70455719  0.99478994     2.64700
O1361       O  0.84029354  0.70636060  0.99341113    -0.98500
O1362       O  0.93293252  0.65739958  0.49466090    -0.80600
O1363       O  0.92936735  0.74330493  0.03681267    -0.84000
O1364       O  0.92822310  0.74299792  0.45121432    -2.18700
O1365       O  0.09536156  0.80246717  0.42059828    -0.67300
O1366       O  0.06012109  0.77516523  0.37126901    -0.51900
C1367       C  0.08617720  0.79576140  0.38199188     0.71400
O1368       O  0.11010860  0.69341756  0.06955463    -0.60300
O1369       O  0.06761220  0.71836868  0.11880626    -0.52200
C1370       C  0.09859055  0.69939423  0.10812746     0.73200
O1371       O  0.11109276  0.69282323  0.42662406    -0.71700
O1372       O  0.06591204  0.71419449  0.37426975    -0.50300
C1373       C  0.09974642  0.69721599  0.38743406     0.74600
O1374       O  0.09557311  0.80542747  0.05980263    -0.67000
O1375       O  0.05880702  0.78234816  0.11372911    -0.54200
C1376       C  0.08594423  0.80196898  0.09915483     0.73000
Zr1377     Zr  0.08234880  0.78512893  0.49209227     2.77500
O1378       O  0.17671028  0.77861858  0.49388069    -0.97700
O1379       O  0.09172366  0.83260157  0.98510716    -0.78600
Zr1380     Zr  0.08984542  0.70858512  0.49773252     2.70100
O1381       O  0.18303948  0.71842604  0.49920564    -0.79800
O1382       O  0.10027438  0.66094118  0.99841951    -0.98900
Zr1383     Zr  0.00845809  0.74691849  0.07785078     2.21500
Zr1384     Zr  0.00821571  0.74418627  0.41203108     2.11100
O1385       O  0.08761410  0.74599607  0.45230027    -2.47600
O1386       O  0.08768929  0.74807214  0.03751629    -0.79600
O1387       O  0.00415817  0.78338749  0.45251617    -0.71800
O1388       O  0.01232484  0.70732874  0.03689428    -2.32700
O1389       O  0.00368130  0.78471911  0.03231999    -2.29000
O1390       O  0.01254037  0.70588622  0.45584736    -0.73500
H1391       H  0.89827100  0.74222455  0.43263893     0.78500
H1392       H  0.01342061  0.69205878  0.05512101     0.79500
H1393       H  0.11786553  0.74642440  0.43406882     0.81800
H1394       H  0.00247198  0.80102314  0.04778608     0.79400
H1395       H  0.97153828  0.65167731  0.00167814     0.42400
H1396       H  0.08236739  0.65379977  0.47801620     0.41400
H1397       H  0.20050768  0.69984771  0.99112985     0.41100
H1398       H  0.19082772  0.79287203  0.47578732     0.39000
H1399       H  0.06300752  0.83995873  0.48245214     0.42100
H1400       H  0.89728892  0.83529940  0.99615481     0.36900
H1401       H  0.82132985  0.76755036  0.01585025     0.43000
H1402       H  0.82800960  0.71045558  0.46818944     0.39400
H1403       H  0.18728036  0.78351078  0.52299221     0.44400
H1404       H  0.84565744  0.81964179  0.00603134     0.43100
H1405       H  0.82903090  0.68961417  0.00663352     0.43200
H1406       H  0.14162536  0.65907254  0.48810583     0.43600
C1407       C  0.26818041  0.62621902  0.20643429     0.45500
H1408       H  0.26676358  0.62984998  0.17171905    -0.03600
C1409       C  0.26971394  0.61855962  0.28709613     0.45500
H1410       H  0.26820995  0.61560137  0.32173814    -0.03600
C1411       C  0.31267355  0.64098730  0.22914440    -0.17300
C1412       C  0.21810755  0.63575348  0.22788352    -0.17000
C1413       C  0.27839762  0.59719246  0.21804915    -0.17400
C1414       C  0.31318768  0.63735274  0.27231414    -0.17400
C1415       C  0.21824374  0.63171270  0.27093921    -0.16900
C1416       C  0.28114318  0.59300534  0.26152807    -0.17300
C1417       C  0.74479487  0.62525998  0.20704471     0.45500
H1418       H  0.73794662  0.62563538  0.17276905    -0.03600
C1419       C  0.75013349  0.62604528  0.28841575     0.45500
H1420       H  0.75223359  0.62630640  0.32358553    -0.03600
C1421       C  0.71304085  0.64748706  0.22749927    -0.17300
C1422       C  0.72368986  0.59964969  0.22735423    -0.17000
C1423       C  0.80189445  0.63052882  0.22244715    -0.17400
C1424       C  0.71460634  0.64767424  0.27064327    -0.17400
C1425       C  0.72620284  0.60026662  0.27092439    -0.16900
C1426       C  0.80357627  0.63124466  0.26675644    -0.17300
C1427       C  0.25837483  0.85967959  0.20599447     0.45500
H1428       H  0.26484798  0.85604107  0.17197596    -0.03600
C1429       C  0.24932298  0.86717139  0.28622852     0.45500
H1430       H  0.24605142  0.87046561  0.32090687    -0.03600
C1431       C  0.28053791  0.83667261  0.23259588    -0.17300
C1432       C  0.28837333  0.88431894  0.22133880    -0.17000
C1433       C  0.19974921  0.86230782  0.22034122    -0.17400
C1434       C  0.27666380  0.84123393  0.27512886    -0.17400
C1435       C  0.28275983  0.88866385  0.26406216    -0.16900
C1436       C  0.19556621  0.86404329  0.26418773    -0.17300
C1437       C  0.76373904  0.86809456  0.28950966     0.45500
H1438       H  0.76334437  0.86792636  0.32445480    -0.03600
C1439       C  0.75827661  0.86813489  0.20816289     0.45500
H1440       H  0.75623809  0.86807392  0.17301600    -0.03600
C1441       C  0.72487299  0.84744324  0.27208483    -0.17300
C1442       C  0.74360327  0.89450275  0.27135377    -0.17000
C1443       C  0.81771524  0.86197530  0.26863579    -0.17400
C1444       C  0.72177033  0.84771308  0.22862250    -0.17400
C1445       C  0.74091886  0.89474095  0.22781608    -0.16900
C1446       C  0.81292237  0.86042589  0.22486454    -0.17300
C1447       C  0.17029121  0.85741065  0.14550313    -0.20300
C1448       C  0.15642335  0.85635192  0.18826667    -0.06900
C1449       C  0.10648324  0.84531902  0.19694028     0.14000
C1450       C  0.08532892  0.82661685  0.16858154    -0.20400
C1451       C  0.10774795  0.82257772  0.12842599    -0.06900
C1452       C  0.14815437  0.84038305  0.11566035     0.14000
C1453       C  0.17158985  0.84102780  0.07182017    -0.23700
H1454       H  0.20125927  0.87054024  0.13561063     0.15300
H1455       H  0.04926732  0.81660285  0.17668999     0.15300
C1456       C  0.06995598  0.85694051  0.22916870    -0.23700
H1457       H  0.20474448  0.85506469  0.06930653     0.05500
H1458       H  0.14168345  0.84766678  0.04875636     0.08700
H1459       H  0.18716892  0.82135140  0.06337801     0.08700
H1460       H  0.08749950  0.87422387  0.24517634     0.08700
H1461       H  0.05780966  0.84187283  0.25264818     0.08700
H1462       H  0.03412793  0.86413850  0.21283644     0.05500
C1463       C  0.11177415  0.84046961  0.35676246    -0.20300
C1464       C  0.10722370  0.81339704  0.34820324    -0.06900
C1465       C  0.12463261  0.80401750  0.30851941     0.14000
C1466       C  0.14977877  0.82144666  0.28057777    -0.20400
C1467       C  0.15678490  0.84828312  0.28983375    -0.06900
C1468       C  0.13499318  0.85796536  0.32782730     0.14000
C1469       C  0.13467180  0.88671155  0.33847124    -0.23700
H1470       H  0.09677943  0.84818301  0.38632414     0.15300
H1471       H  0.16456437  0.81389758  0.25128508     0.15300
C1472       C  0.11923688  0.77553140  0.29582793    -0.23700
H1473       H  0.09412476  0.89302091  0.34590619     0.05500
H1474       H  0.14788081  0.89888726  0.31152645     0.08700
H1475       H  0.15988560  0.89022620  0.36654173     0.08700
H1476       H  0.07731416  0.77020118  0.29299373     0.08700
H1477       H  0.13833847  0.76263389  0.31973004     0.08700
H1478       H  0.13771272  0.77155674  0.26469359     0.05500
C1479       C  0.21083126  0.66354464  0.33013004    -0.20300
C1480       C  0.18472411  0.64742081  0.30077983    -0.06900
C1481       C  0.12922838  0.64847377  0.29921925     0.14000
C1482       C  0.10215945  0.66576378  0.32646391    -0.20400
C1483       C  0.12903888  0.68158250  0.35580622    -0.06900
C1484       C  0.18416693  0.68084942  0.35678268     0.14000
C1485       C  0.21548380  0.69912730  0.38466982    -0.23700
H1486       H  0.25291450  0.66344742  0.33146461     0.15300
H1487       H  0.05973939  0.66616576  0.32587154     0.15300
C1488       C  0.09723350  0.63091366  0.27090978    -0.23700
H1489       H  0.25823618  0.69715466  0.37917914     0.05500
H1490       H  0.20825986  0.69468230  0.41852820     0.08700
H1491       H  0.20441151  0.71985141  0.37780944     0.08700
H1492       H  0.12153083  0.61667092  0.25317078     0.08700
H1493       H  0.07473404  0.64312391  0.24799423     0.08700
H1494       H  0.06932678  0.61936539  0.29039945     0.05500
C1495       C  0.14887149  0.69528545  0.17610286    -0.20300
C1496       C  0.12306192  0.68297177  0.14226122    -0.06900
C1497       C  0.12349276  0.65508918  0.14039884     0.14000
C1498       C  0.15218777  0.64052736  0.17055001    -0.20400
C1499       C  0.18086750  0.65280595  0.20285465    -0.06900
C1500       C  0.17888303  0.68076977  0.20564153     0.14000
C1501       C  0.21060318  0.69634261  0.23701401    -0.23700
H1502       H  0.14860850  0.71659621  0.17787205     0.15300
H1503       H  0.15376076  0.61926513  0.16804476     0.15300
C1504       C  0.09347281  0.64041643  0.10682279    -0.23700
H1505       H  0.23387124  0.71153752  0.22013569     0.05500
H1506       H  0.23872030  0.68403763  0.25471245     0.08700
H1507       H  0.18404155  0.70632000  0.25964544     0.08700
H1508       H  0.11104871  0.64411571  0.07537997     0.08700
H1509       H  0.05191791  0.64682670  0.10677132     0.08700
H1510       H  0.09434678  0.61882104  0.11232816     0.05500
C1511       C  0.88957179  0.65437353  0.20468594    -0.20300
C1512       C  0.84325287  0.64150677  0.19134495    -0.03900
C1513       C  0.83462044  0.64182735  0.14689977     0.14000
C1514       C  0.85794537  0.66120730  0.12163541    -0.20400
C1515       C  0.89805797  0.67767059  0.13688997    -0.06900
C1516       C  0.91590841  0.67301980  0.17882964     0.14000
C1517       C  0.96310894  0.68699093  0.19645560    -0.23700
H1518       H  0.90637362  0.64982301  0.23508730     0.15300
H1519       H  0.84686701  0.66190343  0.08849347     0.15300
C1520       C  0.81024445  0.61925358  0.12336457    -0.23700
H1521       H  0.97242004  0.68039702  0.22919225     0.05500
H1522       H  0.95560741  0.70849111  0.19761565     0.08700
H1523       H  0.99776497  0.68295723  0.17634959     0.08700
H1524       H  0.77407502  0.62572580  0.10675817     0.08700
H1525       H  0.80218893  0.60265588  0.14481823     0.08700
H1526       H  0.83816864  0.61171034  0.09937723     0.05500
C1527       C  0.89046298  0.65104597  0.35964681    -0.20300
C1528       C  0.89650594  0.67825664  0.35264665    -0.06900
C1529       C  0.87587087  0.68935152  0.31495628     0.14000
C1530       C  0.84779366  0.67330019  0.28685019    -0.20400
C1531       C  0.84200674  0.64606993  0.29351442    -0.06900
C1532       C  0.86421368  0.63484209  0.33042298     0.14000
C1533       C  0.86040025  0.60585426  0.34012960    -0.23700
H1534       H  0.90647731  0.64226297  0.38820900     0.15300
H1535       H  0.83045124  0.68208361  0.25903457     0.15300
C1536       C  0.88118791  0.71823671  0.30465451    -0.23700
H1537       H  0.90032747  0.59758495  0.34422086     0.05500
H1538       H  0.84081208  0.59457989  0.31460246     0.08700
H1539       H  0.83813006  0.60292486  0.36990413     0.08700
H1540       H  0.92302674  0.72328220  0.30000234     0.08700
H1541       H  0.86459602  0.73025753  0.33067541     0.08700
H1542       H  0.86020025  0.72358085  0.27499259     0.05500
C1543       C  0.90272608  0.83549357  0.28125839    -0.20300
C1544       C  0.86444209  0.85328284  0.29586163    -0.06900
C1545       C  0.86692691  0.85926134  0.33960582     0.14000
C1546       C  0.89141648  0.84155656  0.36759551    -0.20400
C1547       C  0.91807404  0.81903481  0.35294418    -0.06900
C1548       C  0.92782868  0.81754855  0.30880156     0.14000
C1549       C  0.96426402  0.79742603  0.28996971    -0.23700
H1550       H  0.91299329  0.83476657  0.24845866     0.15300
H1551       H  0.88910216  0.84553946  0.40121338     0.15300
C1552       C  0.84766699  0.88495458  0.35744830    -0.23700
H1553       H  0.96902292  0.80017268  0.25527697     0.05500
H1554       H  0.94862253  0.77729996  0.29498106     0.08700
H1555       H  0.00346702  0.79933858  0.30471690     0.08700
H1556       H  0.81615894  0.88132917  0.38088691     0.08700
H1557       H  0.83335655  0.89849109  0.33235752     0.08700
H1558       H  0.88050370  0.89507641  0.37373529     0.05500
C1559       C  0.87270387  0.80168017  0.16612228    -0.20300
C1560       C  0.89774218  0.81412423  0.13254024    -0.06900
C1561       C  0.89881469  0.84199159  0.13106178     0.14000
C1562       C  0.87242322  0.85655109  0.16247317    -0.20400
C1563       C  0.84581434  0.84400364  0.19572172    -0.06900
C1564       C  0.84662575  0.81594172  0.19731321     0.14000
C1565       C  0.82270279  0.79975849  0.23184650    -0.23700
H1566       H  0.87259418  0.78033271  0.16767179     0.15300
H1567       H  0.87254298  0.87784130  0.16106482     0.15300
C1568       C  0.92914296  0.85642528  0.09746926    -0.23700
H1569       H  0.85374235  0.78868241  0.24894639     0.05500
H1570       H  0.79572282  0.78523712  0.21760579     0.08700
H1571       H  0.80168471  0.81178737  0.25485716     0.08700
H1572       H  0.91233955  0.85229106  0.06583373     0.08700
H1573       H  0.97073127  0.85007635  0.09833002     0.08700
H1574       H  0.92793914  0.87806196  0.10230637     0.05500
C1575       C  0.65564281  0.59762268  0.32465426    -0.20300
C1576       C  0.69157774  0.58408610  0.29903626    -0.06900
C1577       C  0.69342237  0.55627803  0.30170201     0.14000
C1578       C  0.65854169  0.54301573  0.32886550    -0.20400
C1579       C  0.62381303  0.55688681  0.35504858    -0.06900
C1580       C  0.62219342  0.58457181  0.35265394     0.14000
C1581       C  0.58471230  0.60054368  0.37906500    -0.23700
H1582       H  0.65383701  0.61874530  0.32338822     0.15300
H1583       H  0.66047723  0.52175685  0.33133679     0.15300
C1584       C  0.73356424  0.54011338  0.27871904    -0.23700
H1585       H  0.58720358  0.62190149  0.37166102     0.05500
H1586       H  0.59383363  0.59809512  0.41319883     0.08700
H1587       H  0.54394375  0.59406069  0.37283299     0.08700
H1588       H  0.76244882  0.55242609  0.26183969     0.08700
H1589       H  0.71378826  0.52695379  0.25569328     0.08700
H1590       H  0.75565707  0.52789499  0.30186535     0.05500
C1591       C  0.63453036  0.58386095  0.20323472    -0.20300
C1592       C  0.68941886  0.58121599  0.20162216    -0.06900
C1593       C  0.71036250  0.56316257  0.17197832     0.14000
C1594       C  0.67707366  0.55055350  0.14256499    -0.20400
C1595       C  0.62271709  0.55479134  0.14210086    -0.06900
C1596       C  0.60114380  0.57119408  0.17375514     0.14000
C1597       C  0.54327436  0.57655773  0.17508389    -0.23700
H1598       H  0.61768222  0.59686172  0.22649715     0.15300
H1599       H  0.69390783  0.53721209  0.11957806     0.15300
C1600       C  0.76737278  0.55578447  0.17144768    -0.23700
H1601       H  0.53285883  0.59012935  0.20125397     0.05500
H1602       H  0.52145015  0.55790934  0.17980566     0.08700
H1603       H  0.53096727  0.58583896  0.14484070     0.08700
H1604       H  0.77142018  0.53460302  0.17956535     0.08700
H1605       H  0.79099542  0.56723059  0.19439574     0.08700
H1606       H  0.78356883  0.55885255  0.13925027     0.05500
C1607       C  0.32568954  0.53839146  0.15252030    -0.20300
C1608       C  0.36595685  0.55032961  0.12923642    -0.06900
C1609       C  0.37135951  0.57781326  0.13039262     0.14000
C1610       C  0.33979641  0.59229852  0.15758000    -0.20400
C1611       C  0.30305048  0.58021936  0.18477713    -0.06900
C1612       C  0.29390426  0.55296503  0.18035510     0.14000
C1613       C  0.24878897  0.53958020  0.20215091    -0.23700
H1614       H  0.31762386  0.51794758  0.14757611     0.15300
H1615       H  0.34687245  0.61315295  0.15916796     0.15300
C1616       C  0.41083672  0.59203746  0.10319306    -0.23700
H1617       H  0.24523071  0.51867987  0.19237623     0.05500
H1618       H  0.21174315  0.54977113  0.19374818     0.08700
H1619       H  0.25373787  0.53974113  0.23687299     0.08700
H1620       H  0.40107741  0.58934130  0.06924819     0.08700
H1621       H  0.45050523  0.58409246  0.10938159     0.08700
H1622       H  0.41153213  0.61352922  0.10956692     0.05500
C1623       C  0.28246566  0.56003482  0.32024020    -0.20300
C1624       C  0.30827011  0.57034772  0.28458087    -0.06900
C1625       C  0.36084804  0.56161676  0.27742767     0.14000
C1626       C  0.38587890  0.54506061  0.30709974    -0.20400
C1627       C  0.36245623  0.53820620  0.34557684    -0.06900
C1628       C  0.30854084  0.54434978  0.35076176     0.14000
C1629       C  0.27772038  0.53448926  0.38817522    -0.23700
H1630       H  0.24216157  0.56573148  0.32570730     0.15300
H1631       H  0.42657873  0.53990715  0.30208336     0.15300
C1632       C  0.39614612  0.57236866  0.24373367    -0.23700
H1633       H  0.23528588  0.53872601  0.38460695     0.05500
H1634       H  0.29094326  0.54432132  0.41757260     0.08700
H1635       H  0.28240225  0.51283310  0.39119981     0.08700
H1636       H  0.38074147  0.59067307  0.23057269     0.08700
H1637       H  0.40224225  0.55743465  0.21868538     0.08700
H1638       H  0.43493591  0.57758840  0.25729432     0.05500
C1639       C  0.65315212  0.91539095  0.20950413    -0.20300
C1640       C  0.70753873  0.91363372  0.20212062    -0.06900
C1641       C  0.72801320  0.92696868  0.16653002     0.14000
C1642       C  0.69406752  0.94015350  0.13818221    -0.20400
C1643       C  0.63946150  0.94074502  0.14415524    -0.06900
C1644       C  0.61903322  0.92868209  0.18117287     0.14000
C1645       C  0.56106181  0.92828441  0.18974832    -0.23700
H1646       H  0.63656890  0.90463570  0.23584498     0.15300
H1647       H  0.71037804  0.94977124  0.11054036     0.15300
C1648       C  0.78599380  0.92734570  0.15831221    -0.23700
H1649       H  0.55164005  0.91700070  0.21893425     0.05500
H1650       H  0.54011159  0.91895020  0.16285154     0.08700
H1651       H  0.54648134  0.94866716  0.19411798     0.08700
H1652       H  0.80026654  0.90715787  0.15217722     0.08700
H1653       H  0.80683741  0.93551758  0.18621031     0.08700
H1654       H  0.79587898  0.93964224  0.13033713     0.05500
C1655       C  0.69039380  0.95234740  0.33686876    -0.20300
C1656       C  0.64810228  0.93986354  0.35728628    -0.06900
C1657       C  0.63668713  0.91348298  0.34766246     0.14000
C1658       C  0.66818630  0.90011259  0.31912027    -0.20400
C1659       C  0.71101999  0.91181698  0.29911287    -0.06900
C1660       C  0.72196196  0.93853998  0.30753127     0.14000
C1661       C  0.76699050  0.95220389  0.28628144    -0.23700
H1662       H  0.69904821  0.97269193  0.34421975     0.15300
H1663       H  0.65809021  0.88028921  0.31193047     0.15300
C1664       C  0.59155205  0.89848172  0.36671781    -0.23700
H1665       H  0.77104528  0.97284715  0.29725474     0.05500
H1666       H  0.76059857  0.95258178  0.25154871     0.08700
H1667       H  0.80400618  0.94161367  0.29337087     0.08700
H1668       H  0.56625215  0.91066291  0.38718228     0.08700
H1669       H  0.60681715  0.88178315  0.38585726     0.08700
H1670       H  0.56693578  0.89039104  0.34086050     0.05500
C1671       C  0.37247377  0.90366628  0.28778001    -0.20300
C1672       C  0.31765522  0.90665655  0.28998958    -0.06900
C1673       C  0.29745620  0.92358499  0.32157245     0.14000
C1674       C  0.33124223  0.93512653  0.35163681    -0.20400
C1675       C  0.38566912  0.93142646  0.35023322    -0.06900
C1676       C  0.40647333  0.91581002  0.31728033     0.14000
C1677       C  0.46420521  0.91039083  0.31498023    -0.23700
H1678       H  0.38871693  0.89041091  0.26451037     0.15300
H1679       H  0.31485967  0.94756946  0.37610667     0.15300
C1680       C  0.24056322  0.93071326  0.32357280    -0.23700
H1681       H  0.47403222  0.89695236  0.28847824     0.05500
H1682       H  0.47700840  0.90096932  0.34500156     0.08700
H1683       H  0.48600595  0.92903615  0.31019781     0.08700
H1684       H  0.22370667  0.92339342  0.35369939     0.08700
H1685       H  0.21845417  0.92274861  0.29632912     0.08700
H1686       H  0.23631924  0.95245246  0.32244047     0.05500
C1687       C  0.31609180  0.92738898  0.18920405    -0.20300
C1688       C  0.32391565  0.90012403  0.19273852    -0.06900
C1689       C  0.36549736  0.88877713  0.16903420     0.14000
C1690       C  0.39477134  0.90414157  0.14083483    -0.20400
C1691       C  0.38573868  0.93098406  0.13650322    -0.06900
C1692       C  0.34659137  0.94286539  0.16148832     0.14000
C1693       C  0.33537799  0.97162760  0.15733341    -0.23700
H1694       H  0.28525371  0.93651918  0.20752327     0.15300
H1695       H  0.42544638  0.89515094  0.12208465     0.15300
C1696       C  0.38205749  0.86091240  0.17449415    -0.23700
H1697       H  0.30278447  0.97783638  0.17824959     0.05500
H1698       H  0.32432251  0.97598710  0.12400600     0.08700
H1699       H  0.37068541  0.98312647  0.16608058     0.08700
H1700       H  0.35165635  0.84794685  0.16115227     0.08700
H1701       H  0.38949211  0.85742094  0.20856707     0.08700
H1702       H  0.41891905  0.85632503  0.15744416     0.05500
C1703       C  0.32435383  0.78653204  0.34736803    -0.20300
C1704       C  0.36070536  0.80075388  0.37099421    -0.06900
C1705       C  0.36697181  0.82791128  0.36508164     0.14000
C1706       C  0.33744752  0.84022975  0.33405839    -0.20400
C1707       C  0.30305772  0.82598840  0.30827226    -0.06900
C1708       C  0.29603047  0.79866775  0.31503921     0.14000
C1709       C  0.25953865  0.78157710  0.28985773    -0.23700
H1710       H  0.31764200  0.76597259  0.35438175     0.15300
H1711       H  0.34229900  0.86107723  0.32943868     0.15300
C1712       C  0.40508631  0.84385568  0.39107001    -0.23700
H1713       H  0.23071212  0.77235324  0.31145176     0.05500
H1714       H  0.28219873  0.76577364  0.27402844     0.08700
H1715       H  0.23810285  0.79249641  0.26527803     0.08700
H1716       H  0.44525564  0.83600136  0.38695186     0.08700
H1717       H  0.39429848  0.84282609  0.42504723     0.08700
H1718       H  0.40528528  0.86491606  0.38148879     0.05500
C1719       C  0.31962370  0.78779431  0.14916177    -0.20300
C1720       C  0.37381646  0.78814486  0.15440821    -0.06900
C1721       C  0.39516946  0.79764303  0.19297135     0.14000
C1722       C  0.36161171  0.80964567  0.22247442    -0.20400
C1723       C  0.30860404  0.81401477  0.21259480    -0.06900
C1724       C  0.28681272  0.80041328  0.17777043     0.14000
C1725       C  0.22936549  0.79871108  0.16918264    -0.23700
H1726       H  0.30270491  0.77864565  0.12129884     0.15300
H1727       H  0.37846691  0.81895136  0.25011687     0.15300
C1728       C  0.45328128  0.79782534  0.20143986    -0.23700
H1729       H  0.21678152  0.77781287  0.17041020     0.05500
H1730       H  0.22137134  0.80647065  0.13706678     0.08700
H1731       H  0.20628734  0.80966696  0.19240781     0.08700
H1732       H  0.47372819  0.80886524  0.17599199     0.08700
H1733       H  0.46835161  0.77736265  0.20293781     0.08700
H1734       H  0.46284890  0.80743559  0.23204416     0.05500
C1735       C  0.67075187  0.81092869  0.36759915    -0.20300
C1736       C  0.61695565  0.81219438  0.35990483    -0.06900
C1737       C  0.59821359  0.82295628  0.32160790     0.14000
C1738       C  0.63423463  0.83368287  0.29298523    -0.20400
C1739       C  0.68860440  0.83294593  0.30099123    -0.06900
C1740       C  0.70680899  0.82031677  0.33829732     0.14000
C1741       C  0.76351510  0.81519478  0.34819473    -0.23700
H1742       H  0.68501164  0.80163345  0.39640586     0.15300
H1743       H  0.61949320  0.84390085  0.26532133     0.15300
C1744       C  0.54056988  0.82424357  0.31163743    -0.23700
H1745       H  0.78957728  0.82069670  0.32217511     0.05500
H1746       H  0.77509396  0.82619447  0.37706105     0.08700
H1747       H  0.76958250  0.79382885  0.35392454     0.08700
H1748       H  0.51993467  0.83528116  0.33684053     0.08700
H1749       H  0.52419830  0.80407509  0.30935038     0.08700
H1750       H  0.53293981  0.83433500  0.28098327     0.05500
C1751       C  0.65591881  0.85048006  0.17230045    -0.20300
C1752       C  0.68163374  0.83438137  0.20207756    -0.06900
C1753       C  0.66847187  0.80722730  0.20401554     0.14000
C1754       C  0.63260481  0.79730382  0.17477673    -0.20400
C1755       C  0.61035915  0.81338319  0.14345672    -0.06900
C1756       C  0.62047575  0.84052251  0.14310432     0.14000
C1757       C  0.59399998  0.85922075  0.11250983    -0.23700
H1758       H  0.66453592  0.87110293  0.17063872     0.15300
H1759       H  0.62418145  0.77636909  0.17501678     0.15300
C1760       C  0.69125702  0.78744674  0.23444390    -0.23700
H1761       H  0.60316675  0.88009149  0.11982529     0.05500
H1762       H  0.55089333  0.85679924  0.11439308     0.08700
H1763       H  0.60736730  0.85554265  0.07968448     0.08700
H1764       H  0.65957874  0.77918139  0.25445881     0.08700
H1765       H  0.72114217  0.79561349  0.25552974     0.08700
H1766       H  0.70930253  0.77105627  0.21645414     0.05500
C1767       C  0.71583820  0.68101316  0.32755606    -0.20300
C1768       C  0.68619026  0.66658558  0.29831998    -0.06900
C1769       C  0.63109041  0.66997390  0.29734816     0.14000
C1770       C  0.60775359  0.68808974  0.32476497    -0.20400
C1771       C  0.63737722  0.70184850  0.35478056    -0.06900
C1772       C  0.69240866  0.69865693  0.35568429     0.14000
C1773       C  0.72691482  0.71379966  0.38590957    -0.23700
H1774       H  0.75770412  0.67823521  0.32881979     0.15300
H1775       H  0.56544714  0.68990371  0.32491675     0.15300
C1776       C  0.59488150  0.65335673  0.27095178    -0.23700
H1777       H  0.76909457  0.71082821  0.37891630     0.05500
H1778       H  0.72046977  0.70711156  0.41893349     0.08700
H1779       H  0.71849077  0.73518375  0.38324084     0.08700
H1780       H  0.61563288  0.63762135  0.25398480     0.08700
H1781       H  0.57387340  0.66595382  0.24768521     0.08700
H1782       H  0.56574449  0.64357771  0.29174922     0.05500
C1783       C  0.64740929  0.65352581  0.17289884    -0.20300
C1784       C  0.68277088  0.66549257  0.20070729    -0.06900
C1785       C  0.69254300  0.69287534  0.19784587     0.14000
C1786       C  0.66747806  0.70722850  0.16608851    -0.20400
C1787       C  0.63503138  0.69458085  0.13695604    -0.06900
C1788       C  0.62324459  0.66773871  0.14092815     0.14000
C1789       C  0.58497211  0.65412532  0.11182890    -0.23700
H1790       H  0.63982370  0.63270327  0.17537531     0.15300
H1791       H  0.67465764  0.72819996  0.16306750     0.15300
C1792       C  0.73031061  0.70754063  0.22566425    -0.23700
H1793       H  0.57927162  0.63315467  0.12073989     0.05500
H1794       H  0.59958298  0.65472290  0.07879944     0.08700
H1795       H  0.54635062  0.66408707  0.11332126     0.08700
H1796       H  0.76085644  0.71703714  0.20589985     0.08700
H1797       H  0.75015480  0.69467156  0.24850691     0.08700
H1798       H  0.70903050  0.72294881  0.24360065     0.05500
C1799       C  0.35155412  0.67983945  0.29529422    -0.20300
C1800       C  0.34665535  0.65260848  0.30216931    -0.06900
C1801       C  0.37333131  0.64099386  0.33704258     0.14000
C1802       C  0.40171481  0.65698822  0.36445920    -0.20400
C1803       C  0.40579926  0.68405682  0.35777451    -0.06900
C1804       C  0.38225693  0.69554994  0.32171625     0.14000
C1805       C  0.38806977  0.72431474  0.31136441    -0.23700
H1806       H  0.33090712  0.68906253  0.26924585     0.15300
H1807       H  0.42135733  0.64820988  0.39152955     0.15300
C1808       C  0.37601172  0.61187012  0.34496228    -0.23700
H1809       H  0.36359351  0.73033104  0.28386080     0.05500
H1810       H  0.42948114  0.72870194  0.30357342     0.08700
H1811       H  0.37623629  0.73608906  0.33903216     0.08700
H1812       H  0.39227347  0.60240013  0.31668308     0.08700
H1813       H  0.33758854  0.60371968  0.35367345     0.08700
H1814       H  0.40270813  0.60678978  0.37158003     0.05500
C1815       C  0.32386480  0.67559117  0.17630563    -0.20300
C1816       C  0.34830171  0.65792763  0.20417283    -0.06900
C1817       C  0.40353076  0.65456949  0.20222033     0.14000
C1818       C  0.43157611  0.66785538  0.17085757    -0.20400
C1819       C  0.40601455  0.68414157  0.14190889    -0.06900
C1820       C  0.35199410  0.68889915  0.14536091     0.14000
C1821       C  0.32387696  0.70802756  0.11659329    -0.23700
H1822       H  0.28198519  0.67824666  0.17759431     0.15300
H1823       H  0.47350155  0.66494267  0.16825296     0.15300
C1824       C  0.43486423  0.63670289  0.23051640    -0.23700
H1825       H  0.28162374  0.70956938  0.12439741     0.05500
H1826       H  0.32701604  0.70153249  0.08322504     0.08700
H1827       H  0.34136433  0.72789402  0.11997406     0.08700
H1828       H  0.45348560  0.62108087  0.21117580     0.08700
H1829       H  0.41149411  0.62734309  0.25529889     0.08700
H1830       H  0.46601981  0.64818948  0.24659005     0.05500
O1831       O  0.42510546  0.69005850  0.57239523    -0.75300
O1832       O  0.46746941  0.71509695  0.62163971    -0.54200
C1833       C  0.43570410  0.69698245  0.61051121     0.78400
O1834       O  0.62617885  0.71064370  0.92407646    -0.59900
O1835       O  0.56803539  0.72770187  0.87668801    -0.52900
C1836       C  0.60940788  0.71434735  0.88620771     0.70400
O1837       O  0.62364883  0.70445013  0.56745158    -0.74500
O1838       O  0.57645263  0.72483877  0.61904353    -0.55000
C1839       C  0.61121865  0.70877812  0.60610419     0.76400
O1840       O  0.42476402  0.69132403  0.92730836    -0.59600
O1841       O  0.45924390  0.71910131  0.87813219    -0.52700
C1842       C  0.43217572  0.69908101  0.88902702     0.73000
Zr1843     Zr  0.44936882  0.70289859  0.50118568     2.54700
O1844       O  0.47978267  0.65746943  0.50223424    -0.80200
O1845       O  0.36071811  0.68556508  0.99503608    -0.93600
Zr1846     Zr  0.60021701  0.72103948  0.49811853     2.64700
O1847       O  0.63205742  0.67621146  0.48918470    -0.98500
O1848       O  0.68908853  0.73914541  0.99917816    -0.80600
O1849       O  0.52705783  0.71001481  0.54036216    -0.84000
O1850       O  0.52379549  0.71171070  0.95697181    -2.18700
O1851       O  0.37855719  0.78929165  0.93742101    -0.67300
O1852       O  0.43259439  0.77384895  0.88536159    -0.51900
C1853       C  0.39223943  0.78627430  0.89882642     0.71400
O1854       O  0.58994887  0.80897147  0.57357735    -0.60300
O1855       O  0.55441995  0.78092500  0.62189294    -0.52200
C1856       C  0.58203876  0.80085769  0.61151006     0.73200
O1857       O  0.59332267  0.80711942  0.92956449    -0.71700
O1858       O  0.54937221  0.78377481  0.87927369    -0.50300
C1859       C  0.58325699  0.80079940  0.89104733     0.74600
O1860       O  0.38699667  0.78420809  0.58239521    -0.67000
O1861       O  0.44686144  0.76678470  0.62779035    -0.54200
C1862       C  0.40386202  0.77869008  0.61993836     0.73000
Zr1863     Zr  0.41291056  0.77859618  0.00593410     2.77500
O1864       O  0.39531652  0.82608212  0.51516890    -0.97700
O1865       O  0.32042620  0.76709484  0.00869678    -0.78600
Zr1866     Zr  0.56268210  0.79729412  0.00045132     2.70100
O1867       O  0.52407694  0.84113608  0.99837937    -0.79800
O1868       O  0.65254698  0.81518791  0.50046096    -0.98900
Zr1869     Zr  0.51072161  0.74827832  0.58127289     2.21500
Zr1870     Zr  0.50368534  0.75116059  0.91984179     2.11100
O1871       O  0.48546639  0.78922136  0.96170471    -2.47600
O1872       O  0.49134426  0.78849236  0.54652008    -0.79600
O1873       O  0.42861368  0.74146887  0.96176915    -0.71800
O1874       O  0.58651641  0.75841661  0.54085326    -2.32700
O1875       O  0.43170211  0.73986365  0.54431450    -2.29000
O1876       O  0.58189635  0.76024950  0.95756379    -0.73500
H1877       H  0.52965184  0.69711930  0.93793609     0.78500
H1878       H  0.61689293  0.76111078  0.55863082     0.79500
H1879       H  0.47791652  0.80439556  0.94407286     0.81800
H1880       H  0.40258561  0.73640819  0.56293164     0.79400
H1881       H  0.69515166  0.74614624  0.47359486     0.42400
H1882       H  0.67073566  0.80866177  0.98548147     0.41400
H1883       H  0.52442366  0.84655315  0.53018506     0.41100
H1884       H  0.35321588  0.82523957  0.01902902     0.39000
H1885       H  0.31792775  0.75325850  0.03073637     0.42100
H1886       H  0.33800578  0.70109692  0.50732833     0.36900
H1887       H  0.49787509  0.65547448  0.52982972     0.43000
H1888       H  0.66661284  0.67618222  0.00814353     0.39400
H1889       H  0.41013500  0.83186200  0.03411920     0.44400
H1890       H  0.35722676  0.67242787  0.51768965     0.43100
H1891       H  0.60713469  0.66513930  0.50523191     0.43200
H1892       H  0.64308952  0.83602665  0.99086812     0.43600
O1893       O  0.41182906  0.93731171  0.56663214    -0.75300
O1894       O  0.44682033  0.96430412  0.61713469    -0.54200
C1895       C  0.41710270  0.94528613  0.60519255     0.78400
O1896       O  0.62643330  0.94894987  0.92768925    -0.59900
O1897       O  0.57729398  0.96809313  0.87527351    -0.52900
C1898       C  0.61599920  0.95411772  0.88853900     0.70400
O1899       O  0.62168117  0.94901698  0.57173281    -0.74500
O1900       O  0.56710009  0.96774933  0.62015960    -0.55000
C1901       C  0.60743250  0.95359460  0.61023802     0.76400
O1902       O  0.40366612  0.94113003  0.92184948    -0.59600
O1903       O  0.45452836  0.96113693  0.87190850    -0.52700
C1904       C  0.41645834  0.94587543  0.88300667     0.73000
Zr1905     Zr  0.43945800  0.94905624  0.49459351     2.54700
O1906       O  0.45671739  0.90193752  0.49295197    -0.80200
O1907       O  0.34312566  0.94254492  0.99443629    -0.93600
Zr1908     Zr  0.59279964  0.95892646  0.49899131     2.64700
O1909       O  0.60118874  0.91119136  0.49997455    -0.98500
O1910       O  0.68537046  0.96036149  0.00124149    -0.80600
O1911       O  0.51450004  0.95408271  0.53881095    -0.84000
O1912       O  0.51552168  0.95302852  0.95365607    -2.18700
O1913       O  0.38165542  0.53226399  0.92087999    -0.67300
O1914       O  0.43766465  0.51516311  0.87234437    -0.51900
C1915       C  0.39514636  0.52742763  0.88248210     0.71400
O1916       O  0.60085620  0.54831778  0.56967497    -0.60300
O1917       O  0.55557924  0.52476639  0.61922579    -0.52200
C1918       C  0.59054511  0.54186167  0.60844405     0.73200
O1919       O  0.60046713  0.54800871  0.92530954    -0.71700
O1920       O  0.56185314  0.52277113  0.87417265    -0.50300
C1921       C  0.59301573  0.54116994  0.88647119     0.74600
O1922       O  0.38385533  0.53791338  0.55890686    -0.67000
O1923       O  0.43342306  0.51988509  0.61208478    -0.54200
C1924       C  0.39497974  0.53396183  0.59802487     0.73000
Zr1925     Zr  0.41910968  0.52642954  0.99149307     2.77500
O1926       O  0.41285844  0.57413274  0.48448863    -0.97700
O1927       O  0.32390903  0.52158069  0.49218460    -0.78600
Zr1928     Zr  0.57250142  0.53571805  0.99677950     2.70100
O1929       O  0.55873185  0.58314522  0.99810584    -0.79800
O1930       O  0.66458718  0.54607233  0.50029768    -0.98900
Zr1931     Zr  0.50358079  0.99397025  0.57833646     2.21500
Zr1932     Zr  0.50936803  0.99230841  0.91174922     2.11100
O1933       O  0.49720043  0.53166676  0.95213144    -2.47600
O1934       O  0.49222502  0.53280572  0.53605647    -0.79600
O1935       O  0.43082994  0.98915060  0.95143399    -0.71800
O1936       O  0.58248302  0.99800056  0.53881248    -2.32700
O1937       O  0.42849268  0.98840880  0.53356493    -2.29000
O1938       O  0.58499001  0.99618147  0.95623086    -0.73500
H1939       H  0.51867584  0.93772702  0.93583169     0.78500
H1940       H  0.61234326  0.99975195  0.55736798     0.79500
H1941       H  0.49423993  0.54664359  0.93338545     0.81800
H1942       H  0.39705194  0.98699352  0.55028893     0.79400
H1943       H  0.69303809  0.97749713  0.52596492     0.42400
H1944       H  0.67936274  0.52845956  0.97342556     0.41400
H1945       H  0.54942571  0.58882788  0.52788590     0.41100
H1946       H  0.42454369  0.57769291  0.95403746     0.39000
H1947       H  0.31792285  0.50308238  0.99503114     0.42100
H1948       H  0.33169574  0.95430538  0.51722217     0.36900
H1949       H  0.49416954  0.90024391  0.50048426     0.43000
H1950       H  0.58389821  0.90426523  0.96997359     0.39400
H1951       H  0.37868285  0.57863863  0.98670788     0.44400
H1952       H  0.34005978  0.92447770  0.50656505     0.43100
H1953       H  0.58733473  0.90572766  0.52789941     0.43200
H1954       H  0.67429835  0.55795782  0.98723603     0.43600
O1955       O  0.91216362  0.80210809  0.56217109    -0.75300
O1956       O  0.95091213  0.77754213  0.61422565    -0.54200
C1957       C  0.92266909  0.79700626  0.60124120     0.78400
O1958       O  0.91906338  0.68631418  0.92416107    -0.59900
O1959       O  0.95469245  0.71271997  0.87330320    -0.52900
C1960       C  0.92716784  0.69281596  0.88521324     0.70400
O1961       O  0.91624631  0.68950638  0.56679913    -0.74500
O1962       O  0.95528179  0.71435083  0.61776741    -0.55000
C1963       C  0.92634160  0.69472945  0.60586848     0.76400
O1964       O  0.92477793  0.80280264  0.92359472    -0.59600
O1965       O  0.95958096  0.77712104  0.87217533    -0.52700
C1966       C  0.93562300  0.79808468  0.88457291     0.73000
Zr1967     Zr  0.92626238  0.78173533  0.49278361     2.54700
O1968       O  0.83593206  0.76667384  0.48936247    -0.80200
O1969       O  0.87445990  0.82112097  0.98525006    -0.93600
Zr1970     Zr  0.93415124  0.70529279  0.49553518     2.64700
O1971       O  0.83906824  0.70818828  0.49805138    -0.98500
O1972       O  0.93424614  0.65672958  0.99905450    -0.80600
O1973       O  0.92928188  0.74411557  0.53744697    -0.84000
O1974       O  0.92909165  0.74214485  0.95034820    -2.18700
O1975       O  0.09623578  0.80244164  0.92080299    -0.67300
O1976       O  0.06184044  0.77491361  0.87137691    -0.51900
C1977       C  0.08748722  0.79562099  0.88224091     0.71400
O1978       O  0.10859022  0.69281773  0.57032731    -0.60300
O1979       O  0.06764210  0.71839425  0.61959402    -0.52200
C1980       C  0.09773932  0.69902944  0.60902063     0.73200
O1981       O  0.11485564  0.69330222  0.92665076    -0.71700
O1982       O  0.06762177  0.71363613  0.87436771    -0.50300
C1983       C  0.10250664  0.69718199  0.88752958     0.74600
O1984       O  0.09457529  0.80601368  0.56012467    -0.67000
O1985       O  0.05771655  0.78296677  0.61406237    -0.54200
C1986       C  0.08428261  0.80279315  0.59947205     0.73000
Zr1987     Zr  0.08158705  0.78519038  0.99180740     2.77500
O1988       O  0.17616906  0.77942300  0.99339208    -0.97700
O1989       O  0.09833438  0.83199826  0.48397026    -0.78600
Zr1990     Zr  0.09062829  0.70862323  0.99731360     2.70100
O1991       O  0.18448008  0.71648815  0.00089045    -0.79800
O1992       O  0.10596737  0.66133139  0.49973881    -0.98900
Zr1993     Zr  0.00870854  0.74699123  0.57828500     2.21500
Zr1994     Zr  0.00936522  0.74380223  0.91146207     2.11100
O1995       O  0.08826775  0.74609055  0.95209237    -2.47600
O1996       O  0.08815051  0.74800418  0.53802180    -0.79600
O1997       O  0.00366232  0.78292159  0.95204184    -0.71800
O1998       O  0.01150485  0.70747614  0.53714681    -2.32700
O1999       O  0.00446901  0.78494107  0.53275931    -2.29000
O2000       O  0.01389427  0.70551271  0.95517294    -0.73500
H2001       H  0.89936795  0.74108963  0.93154712     0.78500
H2002       H  0.01271826  0.69212476  0.55516228     0.79500
H2003       H  0.11870777  0.74667813  0.93407618     0.81800
H2004       H  0.00308509  0.80125508  0.54816561     0.79400
H2005       H  0.96689353  0.65241327  0.48195111     0.42400
H2006       H  0.07707598  0.65447911  0.97554856     0.41400
H2007       H  0.19858998  0.70435202  0.51696327     0.41100
H2008       H  0.19032183  0.79754974  0.99313368     0.39000
H2009       H  0.05652435  0.83907275  0.97702373     0.42100
H2010       H  0.90440261  0.83696772  0.49432569     0.36900
H2011       H  0.82335893  0.76772291  0.51893927     0.43000
H2012       H  0.83064870  0.70451851  0.96318028     0.39400
H2013       H  0.18390396  0.77277251  0.02224207     0.44400
H2014       H  0.85152103  0.82312740  0.50657618     0.43100
H2015       H  0.82748550  0.69020103  0.50564724     0.43200
H2016       H  0.13621243  0.65757092  0.98812985     0.43600
C2017       C  0.26840531  0.62504741  0.70652329     0.45500
H2018       H  0.26702597  0.62843825  0.67173637    -0.03600
C2019       C  0.27075623  0.61768312  0.78732292     0.45500
H2020       H  0.26990606  0.61495646  0.82207864    -0.03600
C2021       C  0.31334923  0.63968226  0.72889950    -0.17300
C2022       C  0.21853101  0.63484820  0.72822906    -0.17000
C2023       C  0.27844194  0.59607676  0.71839919    -0.17400
C2024       C  0.31434144  0.63615184  0.77200186    -0.17400
C2025       C  0.21940356  0.63096725  0.77137661    -0.16900
C2026       C  0.28125132  0.59200756  0.76188163    -0.17300
C2027       C  0.75061367  0.62250425  0.70675415     0.45500
H2028       H  0.74537614  0.62257590  0.67218577    -0.03600
C2029       C  0.75285490  0.62406860  0.78827993     0.45500
H2030       H  0.75388087  0.62462104  0.82347051    -0.03600
C2031       C  0.71817334  0.64494739  0.72583086    -0.17300
C2032       C  0.72826070  0.59713174  0.72725183    -0.17000
C2033       C  0.80716870  0.62800334  0.72354488    -0.17400
C2034       C  0.71811591  0.64570420  0.76910701    -0.17400
C2035       C  0.72918021  0.59816694  0.77088225    -0.16900
C2036       C  0.80725633  0.62882113  0.76787163    -0.17300
C2037       C  0.25548251  0.86064463  0.70578093     0.45500
H2038       H  0.26084101  0.85716975  0.67160508    -0.03600
C2039       C  0.24794601  0.86786539  0.78618886     0.45500
H2040       H  0.24515448  0.87107780  0.82091866    -0.03600
C2041       C  0.27818665  0.83753958  0.73194305    -0.17300
C2042       C  0.28594402  0.88518641  0.72104012    -0.17000
C2043       C  0.19717795  0.86324782  0.72081671    -0.17400
C2044       C  0.27506311  0.84193634  0.77459083    -0.17400
C2045       C  0.28101066  0.88940115  0.76386508    -0.16900
C2046       C  0.19384947  0.86486114  0.76467484    -0.17300
C2047       C  0.76473936  0.86861035  0.79016417     0.45500
H2048       H  0.76400197  0.86828578  0.82509671    -0.03600
C2049       C  0.75951226  0.86861161  0.70878171     0.45500
H2050       H  0.75735717  0.86842818  0.67364521    -0.03600
C2051       C  0.72576978  0.84810131  0.77267066    -0.17300
C2052       C  0.74510352  0.89512393  0.77193656    -0.17000
C2053       C  0.81866244  0.86229964  0.76939674    -0.17400
C2054       C  0.72276665  0.84833947  0.72932101    -0.17400
C2055       C  0.74259335  0.89534784  0.72832000    -0.16900
C2056       C  0.81400980  0.86071830  0.72561728    -0.17300
C2057       C  0.16588656  0.85920188  0.64630141    -0.20300
C2058       C  0.15323444  0.85729325  0.68923395    -0.06900
C2059       C  0.10400678  0.84553601  0.69823644     0.14000
C2060       C  0.08316409  0.82692318  0.66953768    -0.20400
C2061       C  0.10468183  0.82381117  0.62882064    -0.06900
C2062       C  0.14309591  0.84269420  0.61598091     0.14000
C2063       C  0.16268350  0.84561475  0.57120135    -0.23700
H2064       H  0.19621461  0.87275548  0.63654009     0.15300
H2065       H  0.04796368  0.81624069  0.67791723     0.15300
C2066       C  0.06752623  0.85636881  0.73120841    -0.23700
H2067       H  0.19341714  0.86094979  0.56824878     0.05500
H2068       H  0.12983565  0.85190867  0.55062525     0.08700
H2069       H  0.18033177  0.82694378  0.56005239     0.08700
H2070       H  0.08441244  0.87378918  0.74728866     0.08700
H2071       H  0.05674451  0.84094980  0.75453630     0.08700
H2072       H  0.03095891  0.86318598  0.71554765     0.05500
C2073       C  0.11101349  0.84054407  0.85705247    -0.20300
C2074       C  0.10823564  0.81338144  0.84867300    -0.06900
C2075       C  0.12653136  0.80409076  0.80925794     0.14000
C2076       C  0.15049018  0.82181228  0.78118964    -0.20400
C2077       C  0.15597939  0.84873825  0.79036864    -0.06900
C2078       C  0.13348424  0.85827351  0.82814390     0.14000
C2079       C  0.13116514  0.88707976  0.83833099    -0.23700
H2080       H  0.09515633  0.84812952  0.88640423     0.15300
H2081       H  0.16530930  0.81450326  0.75174516     0.15300
C2082       C  0.12300288  0.77546841  0.79696925    -0.23700
H2083       H  0.08992629  0.89285875  0.84428332     0.05500
H2084       H  0.14521487  0.89933667  0.81175358     0.08700
H2085       H  0.15471927  0.89111571  0.86715229     0.08700
H2086       H  0.08142845  0.76953406  0.79386109     0.08700
H2087       H  0.14248159  0.76300226  0.82127673     0.08700
H2088       H  0.14210187  0.77158943  0.76605386     0.05500
C2089       C  0.21304869  0.66443345  0.82827000    -0.20300
C2090       C  0.18667012  0.64688320  0.80131846    -0.06900
C2091       C  0.13124885  0.64641320  0.80227508     0.14000
C2092       C  0.10427719  0.66374235  0.82949259    -0.20400
C2093       C  0.13136676  0.68135587  0.85593025    -0.06900
C2094       C  0.18643526  0.68207495  0.85439614     0.14000
C2095       C  0.21744722  0.70222805  0.87889426    -0.23700
H2096       H  0.25508569  0.66526810  0.82781720     0.15300
H2097       H  0.06192827  0.66293333  0.83101152     0.15300
C2098       C  0.09956356  0.62721644  0.77663316    -0.23700
H2099       H  0.25996432  0.70106363  0.87183025     0.05500
H2100       H  0.21255240  0.69907530  0.91336582     0.08700
H2101       H  0.20383833  0.72231871  0.87031473     0.08700
H2102       H  0.12425590  0.61356709  0.75804416     0.08700
H2103       H  0.07357763  0.63814983  0.75450011     0.08700
H2104       H  0.07508958  0.61511442  0.79818652     0.05500
C2105       C  0.15046944  0.69481160  0.67604459    -0.20300
C2106       C  0.12213551  0.68257237  0.64345331    -0.06900
C2107       C  0.11987932  0.65468184  0.64316239     0.14000
C2108       C  0.14955754  0.63995385  0.67269058    -0.20400
C2109       C  0.18089489  0.65210532  0.70355553    -0.06900
C2110       C  0.18049170  0.68013948  0.70547175     0.14000
C2111       C  0.21371910  0.69558692  0.73593266    -0.23700
H2112       H  0.15188206  0.71613016  0.67699845     0.15300
H2113       H  0.14925264  0.61864747  0.67106439     0.15300
C2114       C  0.08506150  0.64027962  0.61243696    -0.23700
H2115       H  0.23713452  0.71043477  0.71841053     0.05500
H2116       H  0.24174206  0.68305596  0.75322605     0.08700
H2117       H  0.18824426  0.70596381  0.75891273     0.08700
H2118       H  0.09830585  0.64369889  0.57953259     0.08700
H2119       H  0.04409168  0.64724587  0.61593912     0.08700
H2120       H  0.08556657  0.61870331  0.61816648     0.05500
C2121       C  0.89240853  0.65475318  0.70718061    -0.20300
C2122       C  0.84913379  0.63957970  0.69328280    -0.03900
C2123       C  0.84363249  0.63808697  0.64859582     0.14000
C2124       C  0.86647872  0.65716288  0.62235703    -0.20400
C2125       C  0.90229510  0.67595913  0.63770360    -0.06900
C2126       C  0.91756204  0.67353854  0.68078572     0.14000
C2127       C  0.96074051  0.69011493  0.69931277    -0.23700
H2128       H  0.90850469  0.65173605  0.73821447     0.15300
H2129       H  0.85798401  0.65608848  0.58876920     0.15300
C2130       C  0.82221427  0.61426766  0.62659148    -0.23700
H2131       H  0.96832837  0.68515660  0.73306416     0.05500
H2132       H  0.94965149  0.71122127  0.69792339     0.08700
H2133       H  0.99757288  0.68686094  0.68149854     0.08700
H2134       H  0.78665031  0.61940294  0.60804414     0.08700
H2135       H  0.81395420  0.59859820  0.64962782     0.08700
H2136       H  0.85205419  0.60624650  0.60459427     0.05500
C2137       C  0.90025445  0.64879516  0.85738961    -0.20300
C2138       C  0.90175858  0.67633768  0.85212778    -0.06900
C2139       C  0.87524411  0.68767160  0.81722145     0.14000
C2140       C  0.84648288  0.67141991  0.79003072    -0.20400
C2141       C  0.84493866  0.64395242  0.79484051    -0.06900
C2142       C  0.87233700  0.63249996  0.82919314     0.14000
C2143       C  0.87215074  0.60329834  0.83740408    -0.23700
H2144       H  0.92047864  0.63991301  0.88406480     0.15300
H2145       H  0.82448268  0.68024734  0.76471312     0.15300
C2146       C  0.87463700  0.71697259  0.80934311    -0.23700
H2147       H  0.91296231  0.59579104  0.83708735     0.05500
H2148       H  0.84950886  0.59221036  0.81335950     0.08700
H2149       H  0.85477480  0.59930343  0.86895895     0.08700
H2150       H  0.91478486  0.72397632  0.80221749     0.08700
H2151       H  0.85926994  0.72736382  0.83757795     0.08700
H2152       H  0.84946209  0.72232473  0.78189065     0.05500
C2153       C  0.90359934  0.83580556  0.78182726    -0.20300
C2154       C  0.86508776  0.85339242  0.79667813    -0.06900
C2155       C  0.86689974  0.85883144  0.84060782     0.14000
C2156       C  0.89085390  0.84076036  0.86819654    -0.20400
C2157       C  0.91793026  0.81848882  0.85304722    -0.06900
C2158       C  0.92828808  0.81750905  0.80898328     0.14000
C2159       C  0.96481466  0.79753337  0.78983126    -0.23700
H2160       H  0.91445186  0.83556758  0.74912114     0.15300
H2161       H  0.88799746  0.84434263  0.90190749     0.15300
C2162       C  0.84775087  0.88436724  0.85912814    -0.23700
H2163       H  0.96971474  0.80057630  0.75521515     0.05500
H2164       H  0.94906953  0.77738039  0.79434730     0.08700
H2165       H  0.00400191  0.79924415  0.80471779     0.08700
H2166       H  0.81588319  0.88056906  0.88218318     0.08700
H2167       H  0.83401796  0.89828156  0.83435826     0.08700
H2168       H  0.88049761  0.89415254  0.87605172     0.05500
C2169       C  0.87453076  0.80177076  0.66773279    -0.20300
C2170       C  0.89902128  0.81413392  0.63381169    -0.06900
C2171       C  0.89950673  0.84199466  0.63185549     0.14000
C2172       C  0.87351480  0.85662659  0.66335712    -0.20400
C2173       C  0.84689269  0.84416861  0.69664461    -0.06900
C2174       C  0.84783894  0.81610510  0.69847979     0.14000
C2175       C  0.82278252  0.80000491  0.73251073    -0.23700
H2176       H  0.87471987  0.78043049  0.66959058     0.15300
H2177       H  0.87349192  0.87790856  0.66173649     0.15300
C2178       C  0.92821264  0.85638452  0.59729585    -0.23700
H2179       H  0.85309265  0.78878757  0.75021064     0.05500
H2180       H  0.79578741  0.78566861  0.71775142     0.08700
H2181       H  0.80144858  0.81220924  0.75499124     0.08700
H2182       H  0.90982972  0.85218526  0.56625418     0.08700
H2183       H  0.96983054  0.85008657  0.59685638     0.08700
H2184       H  0.92712150  0.87802911  0.60202600     0.05500
C2185       C  0.65701001  0.59594617  0.82356770    -0.20300
C2186       C  0.69341439  0.58220576  0.79862495    -0.06900
C2187       C  0.69442447  0.55436471  0.80137042     0.14000
C2188       C  0.65878537  0.54133497  0.82826466    -0.20400
C2189       C  0.62387924  0.55541231  0.85403592    -0.06900
C2190       C  0.62270884  0.58309096  0.85123273     0.14000
C2191       C  0.58489357  0.59925186  0.87700680    -0.23700
H2192       H  0.65557016  0.61708338  0.82206290     0.15300
H2193       H  0.66025883  0.52008514  0.83088096     0.15300
C2194       C  0.73440507  0.53789139  0.77872618    -0.23700
H2195       H  0.58749117  0.62054786  0.86920597     0.05500
H2196       H  0.59358091  0.59703721  0.91125321     0.08700
H2197       H  0.54419841  0.59271905  0.87057251     0.08700
H2198       H  0.76343299  0.54993010  0.76148590     0.08700
H2199       H  0.71448722  0.52459300  0.75598405     0.08700
H2200       H  0.75633390  0.52581709  0.80216201     0.05500
C2201       C  0.63827660  0.58158443  0.70481960    -0.20300
C2202       C  0.69306927  0.57907879  0.70153245    -0.06900
C2203       C  0.71270123  0.56144479  0.67065376     0.14000
C2204       C  0.67829551  0.54966808  0.64121496    -0.20400
C2205       C  0.62398104  0.55391052  0.64246034    -0.06900
C2206       C  0.60369749  0.56937884  0.67579902     0.14000
C2207       C  0.54588740  0.57434601  0.67942818    -0.23700
H2208       H  0.62233356  0.59407838  0.72916991     0.15300
H2209       H  0.69414997  0.53679567  0.61709715     0.15300
C2210       C  0.76922558  0.55333151  0.66911821    -0.23700
H2211       H  0.53647083  0.58698772  0.70701704     0.05500
H2212       H  0.52462336  0.55545398  0.68326252     0.08700
H2213       H  0.53213105  0.58457138  0.65043771     0.08700
H2214       H  0.77216774  0.53187122  0.67541098     0.08700
H2215       H  0.79349419  0.56356789  0.69308249     0.08700
H2216       H  0.78524707  0.55718720  0.63706989     0.05500
C2217       C  0.32077827  0.53787309  0.64930712    -0.20300
C2218       C  0.36361368  0.54915365  0.62823103    -0.06900
C2219       C  0.37351543  0.57613143  0.63272188     0.14000
C2220       C  0.34244983  0.59082506  0.65994904    -0.20400
C2221       C  0.30334335  0.57913594  0.68532057    -0.06900
C2222       C  0.29103678  0.55239573  0.67867426     0.14000
C2223       C  0.24539197  0.53956822  0.70053186    -0.23700
H2224       H  0.30977097  0.51800991  0.64206551     0.15300
H2225       H  0.35178506  0.61134797  0.66333486     0.15300
C2226       C  0.41735914  0.58947656  0.60901679    -0.23700
H2227       H  0.23941983  0.51907118  0.68941884     0.05500
H2228       H  0.20913961  0.55090628  0.69386311     0.08700
H2229       H  0.25192429  0.53872941  0.73513175     0.08700
H2230       H  0.40932013  0.58894450  0.57449143     0.08700
H2231       H  0.45464618  0.57906413  0.61540600     0.08700
H2232       H  0.42218594  0.61037329  0.61851849     0.05500
C2233       C  0.28135115  0.55956332  0.82106660    -0.20300
C2234       C  0.30746115  0.56925059  0.78510707    -0.06900
C2235       C  0.35998821  0.56037183  0.77844569     0.14000
C2236       C  0.38482965  0.54445814  0.80898252    -0.20400
C2237       C  0.36107774  0.53817102  0.84754225    -0.06900
C2238       C  0.30721604  0.54446548  0.85241076     0.14000
C2239       C  0.27631883  0.53551077  0.89037016    -0.23700
H2240       H  0.24109677  0.56547324  0.82619415     0.15300
H2241       H  0.42551749  0.53916357  0.80429413     0.15300
C2242       C  0.39525820  0.57040185  0.74418017    -0.23700
H2243       H  0.23396419  0.53992064  0.88669038     0.05500
H2244       H  0.28991638  0.54582048  0.91924399     0.08700
H2245       H  0.28053462  0.51389954  0.89446851     0.08700
H2246       H  0.38189991  0.58956482  0.73278170     0.08700
H2247       H  0.39762558  0.55579284  0.71825356     0.08700
H2248       H  0.43552608  0.57385573  0.75634115     0.05500
C2249       C  0.65542295  0.91673829  0.71034199    -0.20300
C2250       C  0.70957767  0.91435154  0.70241965    -0.06900
C2251       C  0.72989223  0.92718995  0.66626254     0.14000
C2252       C  0.69589359  0.94048724  0.63802884    -0.20400
C2253       C  0.64139151  0.94177780  0.64468674    -0.06900
C2254       C  0.62131157  0.93022277  0.68224432     0.14000
C2255       C  0.56359108  0.93055463  0.69176037    -0.23700
H2256       H  0.63884058  0.90633153  0.73702172     0.15300
H2257       H  0.71209022  0.94965928  0.60995456     0.15300
C2258       C  0.78773114  0.92699201  0.65734005    -0.23700
H2259       H  0.55442129  0.91971702  0.72143295     0.05500
H2260       H  0.54159416  0.92113847  0.66549621     0.08700
H2261       H  0.55001387  0.95113929  0.69577685     0.08700
H2262       H  0.80117874  0.90666326  0.65124065     0.08700
H2263       H  0.80937387  0.93510634  0.68488714     0.08700
H2264       H  0.79754253  0.93906976  0.62909786     0.05500
C2265       C  0.69003142  0.95315185  0.83628521    -0.20300
C2266       C  0.64780451  0.94050820  0.85658558    -0.06900
C2267       C  0.63741887  0.91396915  0.84761352     0.14000
C2268       C  0.66972878  0.90064775  0.81971210    -0.20400
C2269       C  0.71237243  0.91245584  0.79963185    -0.06900
C2270       C  0.72265465  0.93928268  0.80774786     0.14000
C2271       C  0.76855165  0.95285657  0.78760002    -0.23700
H2272       H  0.69816904  0.97356595  0.84347798     0.15300
H2273       H  0.66047383  0.88072669  0.81321092     0.15300
C2274       C  0.59254867  0.89873958  0.86674245    -0.23700
H2275       H  0.77165466  0.97366474  0.79795371     0.05500
H2276       H  0.76420584  0.95268473  0.75266153     0.08700
H2277       H  0.80528787  0.94253232  0.79649478     0.08700
H2278       H  0.56687509  0.91081843  0.88706147     0.08700
H2279       H  0.60816675  0.88220444  0.88608031     0.08700
H2280       H  0.56802674  0.89045772  0.84096298     0.05500
C2281       C  0.37067597  0.90450299  0.78776702    -0.20300
C2282       C  0.31583433  0.90752431  0.78963772    -0.06900
C2283       C  0.29536559  0.92478011  0.82063560     0.14000
C2284       C  0.32899710  0.93690523  0.85024048    -0.20400
C2285       C  0.38349943  0.93330219  0.84914368    -0.06900
C2286       C  0.40451356  0.91707827  0.81699093     0.14000
C2287       C  0.46227326  0.91147753  0.81531313    -0.23700
H2288       H  0.38701289  0.89095301  0.76492797     0.15300
H2289       H  0.31238457  0.94958482  0.87428652     0.15300
C2290       C  0.23817528  0.93135081  0.82279314    -0.23700
H2291       H  0.47218366  0.89755024  0.78949678     0.05500
H2292       H  0.47495374  0.90256458  0.84579131     0.08700
H2293       H  0.48426882  0.92998067  0.80975954     0.08700
H2294       H  0.22168271  0.92367325  0.85283384     0.08700
H2295       H  0.21624053  0.92327468  0.79552536     0.08700
H2296       H  0.23301327  0.95304311  0.82193355     0.05500
C2297       C  0.31823885  0.92827492  0.69161370    -0.20300
C2298       C  0.32206548  0.90067519  0.69251252    -0.06900
C2299       C  0.36126743  0.88868515  0.66701479     0.14000
C2300       C  0.39139027  0.90386149  0.63929146    -0.20400
C2301       C  0.38652812  0.93105760  0.63774070    -0.06900
C2302       C  0.35067021  0.94355918  0.66510056     0.14000
C2303       C  0.34488923  0.97286286  0.66464454    -0.23700
H2304       H  0.28950427  0.93789200  0.71145924     0.15300
H2305       H  0.41992952  0.89442423  0.61897000     0.15300
C2306       C  0.37556274  0.86034900  0.67068371    -0.23700
H2307       H  0.31320798  0.97959246  0.68606367     0.05500
H2308       H  0.33544049  0.97904599  0.63180874     0.08700
H2309       H  0.38198159  0.98226868  0.67492412     0.08700
H2310       H  0.34413450  0.84811808  0.65713566     0.08700
H2311       H  0.38367591  0.85615913  0.70443681     0.08700
H2312       H  0.41166244  0.85535858  0.65287943     0.05500
C2313       C  0.32508816  0.78610273  0.84372117    -0.20300
C2314       C  0.36100052  0.80007965  0.86805048    -0.06900
C2315       C  0.36613111  0.82743207  0.86375933     0.14000
C2316       C  0.33567147  0.84024584  0.83378098    -0.20400
C2317       C  0.30146741  0.82628904  0.80738049    -0.06900
C2318       C  0.29592847  0.79869451  0.81239827     0.14000
C2319       C  0.26056630  0.78159263  0.78620826    -0.23700
H2320       H  0.31904185  0.76537315  0.84957301     0.15300
H2321       H  0.33984072  0.86125209  0.83029279     0.15300
C2322       C  0.40403217  0.84306475  0.89042361    -0.23700
H2323       H  0.23326610  0.77088698  0.80729517     0.05500
H2324       H  0.28438383  0.76693670  0.76871510     0.08700
H2325       H  0.23746078  0.79272544  0.76298593     0.08700
H2326       H  0.44435979  0.83557879  0.88563087     0.08700
H2327       H  0.39359820  0.84122408  0.92437611     0.08700
H2328       H  0.40357332  0.86431689  0.88204984     0.05500
C2329       C  0.31681044  0.78809856  0.64884628    -0.20300
C2330       C  0.37074621  0.78680648  0.65590372    -0.06900
C2331       C  0.39094947  0.79522764  0.69545940     0.14000
C2332       C  0.35796256  0.80917427  0.72297113    -0.20400
C2333       C  0.30584268  0.81484886  0.71161864    -0.06900
C2334       C  0.28401827  0.80144921  0.67661730     0.14000
C2335       C  0.22662506  0.80048319  0.66730000    -0.23700
H2336       H  0.30019469  0.77947735  0.62043686     0.15300
H2337       H  0.37491632  0.81825095  0.75074369     0.15300
C2338       C  0.44744687  0.79135590  0.70784440    -0.23700
H2339       H  0.21310740  0.77971874  0.66799361     0.05500
H2340       H  0.21935414  0.80865896  0.63529442     0.08700
H2341       H  0.20362527  0.81138252  0.69065331     0.08700
H2342       H  0.47340434  0.80137123  0.68475327     0.08700
H2343       H  0.45662210  0.77000091  0.70896034     0.08700
H2344       H  0.45600476  0.79956239  0.73968949     0.05500
C2345       C  0.67107845  0.80940038  0.86566643    -0.20300
C2346       C  0.61734551  0.81211617  0.85888096    -0.06900
C2347       C  0.59858605  0.82475323  0.82219253     0.14000
C2348       C  0.63480577  0.83538170  0.79372241    -0.20400
C2349       C  0.68921318  0.83361264  0.80120677    -0.06900
C2350       C  0.70727620  0.81950474  0.83715328     0.14000
C2351       C  0.76382617  0.81349749  0.84626752    -0.23700
H2352       H  0.68505713  0.79877183  0.89335727     0.15300
H2353       H  0.62041214  0.84657521  0.76689645     0.15300
C2354       C  0.54085032  0.82827507  0.81417971    -0.23700
H2355       H  0.79020800  0.82071023  0.82164843     0.05500
H2356       H  0.77547561  0.82248542  0.87686784     0.08700
H2357       H  0.76943303  0.79184720  0.84832536     0.08700
H2358       H  0.52305734  0.83927580  0.84081872     0.08700
H2359       H  0.52158053  0.80880941  0.81113278     0.08700
H2360       H  0.53322741  0.83948520  0.78454739     0.05500
C2361       C  0.65613429  0.85106364  0.67375923    -0.20300
C2362       C  0.68246382  0.83496494  0.70315785    -0.06900
C2363       C  0.66919873  0.80781666  0.70550820     0.14000
C2364       C  0.63328976  0.79781507  0.67648110    -0.20400
C2365       C  0.61059352  0.81384149  0.64536523    -0.06900
C2366       C  0.62005513  0.84103867  0.64513491     0.14000
C2367       C  0.59193150  0.85969898  0.61549299    -0.23700
H2368       H  0.66449103  0.87173614  0.67217618     0.15300
H2369       H  0.62507763  0.77685599  0.67678544     0.15300
C2370       C  0.69150718  0.78808363  0.73628370    -0.23700
H2371       H  0.60067151  0.88059232  0.62298633     0.05500
H2372       H  0.54899542  0.85689682  0.61835295     0.08700
H2373       H  0.60421090  0.85633432  0.58231908     0.08700
H2374       H  0.65965983  0.78036788  0.75670062     0.08700
H2375       H  0.72193929  0.79608332  0.75693485     0.08700
H2376       H  0.70873241  0.77129815  0.71870172     0.05500
C2377       C  0.71729880  0.67955579  0.82562941    -0.20300
C2378       C  0.68865154  0.66501152  0.79590463    -0.06900
C2379       C  0.63343587  0.66829954  0.79452528     0.14000
C2380       C  0.60930320  0.68636247  0.82191727    -0.20400
C2381       C  0.63819044  0.70038055  0.85220562    -0.06900
C2382       C  0.69329549  0.69739215  0.85323700     0.14000
C2383       C  0.72750159  0.71312095  0.88289406    -0.23700
H2384       H  0.75892850  0.67670047  0.82791307     0.15300
H2385       H  0.56697805  0.68799450  0.82173662     0.15300
C2386       C  0.59785097  0.65150369  0.76792583    -0.23700
H2387       H  0.76975715  0.70999541  0.87637229     0.05500
H2388       H  0.72072858  0.70717486  0.91622298     0.08700
H2389       H  0.71917167  0.73443974  0.87894925     0.08700
H2390       H  0.61918405  0.63586400  0.75125454     0.08700
H2391       H  0.57687080  0.66396388  0.74445113     0.08700
H2392       H  0.56866359  0.64159784  0.78851915     0.05500
C2393       C  0.65061042  0.65143027  0.67233219    -0.20300
C2394       C  0.68907350  0.66280597  0.69797605    -0.06900
C2395       C  0.70257006  0.68957505  0.69275103     0.14000
C2396       C  0.67479807  0.70469115  0.66340624    -0.20400
C2397       C  0.63684915  0.69301244  0.63785185    -0.06900
C2398       C  0.62412721  0.66625767  0.64218964     0.14000
C2399       C  0.58275048  0.65338575  0.61511232    -0.23700
H2400       H  0.64178296  0.63074359  0.67546078     0.15300
H2401       H  0.68431757  0.72530695  0.65886419     0.15300
C2402       C  0.74884969  0.70169249  0.71458161    -0.23700
H2403       H  0.57684305  0.63240286  0.62384807     0.05500
H2404       H  0.59447456  0.65417152  0.58135501     0.08700
H2405       H  0.54491453  0.66381180  0.61897134     0.08700
H2406       H  0.78461479  0.69098747  0.70477861     0.08700
H2407       H  0.74390911  0.70093520  0.74929956     0.08700
H2408       H  0.75410852  0.72267900  0.70563264     0.05500
C2409       C  0.35228725  0.67878236  0.79419827    -0.20300
C2410       C  0.34815517  0.65153890  0.80128091    -0.06900
C2411       C  0.37616275  0.64005106  0.83553861     0.14000
C2412       C  0.40454952  0.65626431  0.86258109    -0.20400
C2413       C  0.40742320  0.68336887  0.85584814    -0.06900
C2414       C  0.38310262  0.69468261  0.82006715     0.14000
C2415       C  0.38811571  0.72345355  0.80955425    -0.23700
H2416       H  0.33096421  0.68788006  0.76842409     0.15300
H2417       H  0.42506960  0.64767529  0.88938547     0.15300
C2418       C  0.38001827  0.61092176  0.84317006    -0.23700
H2419       H  0.36284335  0.72934909  0.78244958     0.05500
H2420       H  0.42925129  0.72803417  0.80113203     0.08700
H2421       H  0.37681707  0.73513362  0.83744673     0.08700
H2422       H  0.39703194  0.60163076  0.81498516     0.08700
H2423       H  0.34174560  0.60237766  0.85129330     0.08700
H2424       H  0.40651413  0.60604037  0.87002035     0.05500
C2425       C  0.32367221  0.67411836  0.67597215    -0.20300
C2426       C  0.34858525  0.65674822  0.70398472    -0.06900
C2427       C  0.40410760  0.65444200  0.70323701     0.14000
C2428       C  0.43202506  0.66859018  0.67290978    -0.20400
C2429       C  0.40602906  0.68446301  0.64366542    -0.06900
C2430       C  0.35166048  0.68822457  0.64603097     0.14000
C2431       C  0.32301768  0.70718462  0.61730316    -0.23700
H2432       H  0.28162836  0.67600261  0.67639202     0.15300
H2433       H  0.47420373  0.66652262  0.67113523     0.15300
C2434       C  0.43603974  0.63680492  0.73151400    -0.23700
H2435       H  0.28055084  0.70807129  0.62460934     0.05500
H2436       H  0.32706013  0.70100797  0.58387333     0.08700
H2437       H  0.33931524  0.72726350  0.62128801     0.08700
H2438       H  0.45706839  0.62203797  0.71203926     0.08700
H2439       H  0.41263630  0.62626749  0.75489076     0.08700
H2440       H  0.46519604  0.64874167  0.74914362     0.05500
loop_ 
_geom_bond_atom_site_label_1 
_geom_bond_atom_site_label_2 
_geom_bond_distance 
_geom_bond_site_symmetry_2 
_ccdc_geom_bond_type 
O1          Zr13   2.438       .  S
O1            C3   1.286       .  A
O2          Zr39   2.391       .  S
O2            C3   1.278       .  A
C3          C599   1.452       .  S
O4         Zr626   2.421       .  S
O4            C6   1.283       .  A
O5          Zr40   2.426       .  S
O5            C6   1.286       .  A
C6          C551   1.475       .  S
O7          Zr16   2.417   1_554  S
O7            C9   1.283       .  A
O8          Zr39   2.364       .  S
O8            C9   1.273       .  A
C9          C567   1.436       .  S
O10        Zr623   2.416       .  S
O10          C12   1.284       .  A
O11         Zr40   2.386       .  S
O11          C12   1.278       .  A
C12         C583   1.462       .  S
Zr13        O620   2.412   1_554  S
Zr13         O14   2.436       .  S
Zr13        O625   2.436   1_554  S
Zr13         O19   2.360       .  S
Zr13         O45   2.362       .  S
Zr13        O630   2.369   1_554  S
Zr13        O653   2.369   1_554  S
O14          H57   0.990       .  S
O15        Zr623   2.437       .  S
O15         H666   0.989       .  S
O15         H670   0.990       .  S
Zr16        O614   2.419       .  S
Zr16         O17   2.440       .  S
Zr16        O628   2.436       .  S
Zr16         O19   2.371   1_556  S
Zr16         O44   2.365   1_556  S
Zr16        O630   2.369       .  S
Zr16        O656   2.365       .  S
O17          H61   0.990       .  S
O17         H668   0.990       .  S
O18        Zr626   2.435       .  S
O18         H661   0.990       .  S
O19         Zr39   2.370       .  S
O20         Zr40   2.378       .  S
O20        Zr623   2.361       .  S
O20        Zr626   2.370       .  S
O20          H47   0.968       .  S
O21         Zr33   2.394       .  S
O21          C23   1.278       .  A
O22         Zr40   2.397       .  S
O22          C23   1.281       .  A
C23         C484   1.433       .  S
O24        Zr646   2.428       .  S
O24          C26   1.284       .  A
O25         Zr39   2.371       .  S
O25          C26   1.276       .  A
C26         C535   1.456       .  S
O27         Zr36   2.418       .  S
O27          C29   1.283       .  A
O28         Zr40   2.404       .  S
O28          C29   1.281       .  A
C29         C516   1.456       .  S
O30        Zr643   2.449       .  S
O30          C32   1.291       .  A
O31         Zr39   2.381       .  S
O31          C32   1.275       .  A
C32         C500   1.472       .  S
Zr33        O640   2.446       .  S
Zr33         O35   2.436       .  S
Zr33        O644   2.435       .  S
Zr33         O41   2.380       .  S
Zr33         O43   2.380       .  S
Zr33        O652   2.356       .  S
Zr33        O655   2.342       .  S
O34        Zr643   2.435       .  S
O34         H664   0.990       .  S
O34         H669   0.990       .  S
O35          H55   0.990       .  S
Zr36        O634   2.421       .  S
Zr36         O37   2.436       .  S
Zr36        O648   2.437       .  S
Zr36         O41   2.362       .  S
Zr36         O46   2.369       .  S
Zr36        O652   2.369       .  S
Zr36        O654   2.368       .  S
O37         H663   0.990       .  S
O38        Zr646   2.438   1_556  S
O38         H662   0.990   1_556  S
O38         H672   0.990   1_556  S
Zr39         O42   2.367       .  S
Zr39         O44   2.380       .  S
Zr39         O45   2.366       .  S
Zr40         O41   2.387       .  S
Zr40         O43   2.381       .  S
Zr40         O46   2.369       .  S
O41          H49   0.965       .  S
O42        Zr643   2.354       .  S
O42        Zr646   2.366       .  S
O43        Zr623   2.374       .  S
O44        Zr646   2.377       .  S
O44          H48   0.967       .  S
O45        Zr643   2.345       .  S
O45          H50   0.966       .  S
O46        Zr626   2.355       .  S
H51         O628   0.990       .  S
H52         O648   0.990       .  S
H53         O647   0.990       .  S
H54         O644   0.990       .  S
H56         O625   0.990   1_554  S
H58         O627   0.990       .  S
H59         O644   0.990       .  S
H60         O625   0.990   1_554  S
H62         O648   0.990       .  S
O63         Zr75   2.454   1_554  S
O63          C65   1.291       .  A
O64        Zr101   2.429       .  S
O64          C65   1.287       .  A
C65         C471   1.477       .  S
O66        Zr688   2.451       .  S
O66          C68   1.290       .  A
O67        Zr102   2.436       .  S
O67          C68   1.288       .  A
C68         C436   1.478       .  S
O69         Zr78   2.461   1_554  S
O69          C71   1.293       .  A
O70        Zr101   2.467       .  S
O70          C71   1.295       .  A
C71         C423   1.509       .  S
O72        Zr685   2.461       .  S
O72          C74   1.292       .  A
O73        Zr102   2.463       .  S
O73          C74   1.293       .  A
C74         C455   1.501       .  S
Zr75        O682   2.471       .  S
Zr75         O76   2.435       .  S
Zr75        O687   2.436       .  S
Zr75         O81   2.381   1_556  S
Zr75        O107   2.375   1_556  S
Zr75        O692   2.372       .  S
Zr75        O715   2.368       .  S
O76         H119   0.990       .  S
O77        Zr685   2.436       .  S
O77         H728   0.990       .  S
O77         H732   0.990       .  S
Zr78        O676   2.456       .  S
Zr78         O79   2.437       .  S
Zr78        O690   2.434   1_556  S
Zr78         O81   2.375   1_556  S
Zr78        O106   2.372   1_556  S
Zr78        O692   2.380       .  S
Zr78        O718   2.371       .  S
O79         H123   0.990       .  S
O79         H730   0.990   1_556  S
O80        Zr688   2.435       .  S
O80         H723   0.990       .  S
O81        Zr101   2.398       .  S
O82        Zr102   2.396       .  S
O82        Zr685   2.374       .  S
O82        Zr688   2.386       .  S
O82         H109   0.965       .  S
O83         Zr95   2.443       .  S
O83          C85   1.286       .  A
O84       Zr1322   2.464   1_545  S
O84          C85   1.295       .  A
C85         C407   1.508       .  S
O86        Zr708   2.479   1_554  S
O86          C88   1.295       .  A
O87       Zr1321   2.466   1_545  S
O87          C88   1.294       .  A
C88         C375   1.506       .  S
O89         Zr98   2.443       .  S
O89          C91   1.288       .  A
O90       Zr1322   2.438   1_545  S
O90          C91   1.289       .  A
C91         C359   1.478       .  S
O92        Zr705   2.408   1_554  S
O92          C94   1.281       .  A
O93       Zr1321   2.455   1_545  S
O93          C94   1.292       .  A
C94         C388   1.467       .  S
Zr95        O702   2.404       .  S
Zr95        O706   2.435       .  S
Zr95        O707   2.433       .  S
Zr95        O103   2.364       .  S
Zr95        O714   2.391       .  S
Zr95       O1937   2.371   1_545  S
Zr95       O1325   2.354   1_545  S
O96        Zr705   2.437       .  S
O96         H726   0.990       .  S
O96         H731   0.990       .  S
O97        Zr705   2.433       .  S
O97         H727   0.990       .  S
Zr98        O696   2.479       .  S
Zr98         O99   2.436       .  S
Zr98        O710   2.437       .  S
Zr98        O103   2.393       .  S
Zr98        O714   2.372       .  S
Zr98       O1328   2.376   1_545  S
Zr98       O1936   2.366   1_545  S
O99         H725   0.990       .  S
O100       Zr708   2.437       .  S
O100        H724   0.990       .  S
O100        H734   0.990       .  S
Zr101      O1307   2.461       .  S
Zr101      O1313   2.457       .  S
Zr101       O106   2.387       .  S
Zr101       O107   2.399       .  S
Zr101      O1324   2.393       .  S
Zr102      O1304   2.465       .  S
Zr102      O1310   2.434       .  S
Zr102       O105   2.374       .  S
Zr102       O108   2.396       .  S
Zr102      O1323   2.398       .  S
O103      Zr1322   2.393   1_545  S
O103        H111   0.967       .  S
O104       Zr705   2.385   1_554  S
O104       Zr708   2.374   1_554  S
O104      Zr1321   2.393   1_545  S
O105       Zr685   2.367       .  S
O105      Zr1315   2.360       .  S
O106      Zr1928   2.366   1_554  S
O106        H110   0.965       .  S
O107      Zr1925   2.371   1_554  S
O107        H112   0.966       .  S
O108       Zr688   2.370       .  S
O108      Zr1318   2.379       .  S
H113        O690   0.990   1_556  S
H114        O710   0.990       .  S
H115        O709   0.990   1_554  S
H116        O706   0.990       .  S
H117        O707   0.990       .  S
H118        O687   0.990   1_554  S
H120        O689   0.990       .  S
H121        O706   0.990       .  S
H122        O687   0.990   1_554  S
H124        O710   0.990       .  S
O125       Zr137   2.461   1_554  S
O125        C127   1.289       .  A
O126       Zr163   2.434   1_655  S
O126        C127   1.290       .  A
C127        C340   1.484       .  S
O128       Zr750   2.450       .  S
O128        C130   1.290       .  A
O129       Zr164   2.421   1_655  S
O129        C130   1.286       .  A
C130        C308   1.487       .  S
O131       Zr140   2.432   1_554  S
O131        C133   1.288       .  A
O132       Zr163   2.487   1_655  S
O132        C133   1.298       .  A
C133        C295   1.516       .  S
O134       Zr747   2.436       .  S
O134        C136   1.287       .  A
O135       Zr164   2.462   1_655  S
O135        C136   1.293       .  A
C136        C327   1.511       .  S
Zr137       O744   2.443       .  S
Zr137       O138   2.435       .  S
Zr137       O749   2.440       .  S
Zr137       O143   2.373   1_556  S
Zr137       O169   2.367   1_656  S
Zr137       O754   2.373       .  S
Zr137       O777   2.372   1_655  S
O138        H181   0.990       .  S
O139       Zr747   2.439       .  S
O139        H790   0.990       .  S
O139        H794   0.990       .  S
Zr140       O738   2.460       .  S
Zr140       O141   2.437       .  S
Zr140       O752   2.433       .  S
Zr140       O143   2.385   1_556  S
Zr140       O168   2.376   1_656  S
Zr140       O754   2.373       .  S
Zr140       O780   2.365   1_655  S
O141        H185   0.990   1_556  S
O141        H792   0.990       .  S
O142       Zr750   2.434       .  S
O142        H785   0.990       .  S
O143       Zr163   2.408   1_655  S
O144       Zr164   2.392   1_655  S
O144       Zr747   2.369       .  S
O144       Zr750   2.371       .  S
O144        H171   0.964       .  S
O145       Zr157   2.439       .  S
O145        C147   1.287       .  A
O146       Zr164   2.420       .  S
O146        C147   1.285       .  A
C147        C244   1.487       .  S
O148       Zr770   2.463   1_554  S
O148        C150   1.292       .  A
O149       Zr163   2.459       .  S
O149        C150   1.293       .  A
C150        C276   1.500       .  S
O151       Zr160   2.439       .  S
O151        C153   1.287       .  A
O152       Zr164   2.442       .  S
O152        C153   1.289       .  A
C153        C263   1.481       .  S
O154       Zr767   2.411   1_554  S
O154        C156   1.280       .  A
O155       Zr163   2.482       .  S
O155        C156   1.298       .  A
C156        C231   1.501       .  S
Zr157       O764   2.412       .  S
Zr157       O158   2.435       .  S
Zr157       O769   2.432       .  S
Zr157       O165   2.356       .  S
Zr157       O167   2.357       .  S
Zr157       O776   2.376       .  S
Zr157       O779   2.376       .  S
O158        H178   0.990       .  S
O158        H183   0.990       .  S
O159       Zr767   2.432       .  S
O159        H789   0.990       .  S
Zr160       O758   2.463       .  S
Zr160       O161   2.435       .  S
Zr160       O772   2.436       .  S
Zr160       O165   2.376       .  S
Zr160       O170   2.378       .  S
Zr160       O776   2.374       .  S
Zr160       O778   2.363       .  S
O161        H787   0.990       .  S
O162       Zr770   2.435   1_554  S
O162        H786   0.990   1_554  S
O162        H796   0.990   1_554  S
Zr163       O166   2.401       .  S
Zr163       O168   2.394       .  S
Zr163       O169   2.404       .  S
Zr164       O165   2.394       .  S
Zr164       O167   2.373       .  S
Zr164       O170   2.389       .  S
O165        H173   0.966       .  S
O166       Zr767   2.383   1_554  S
O166       Zr770   2.376   1_554  S
O167       Zr747   2.367   1_455  S
O168       Zr770   2.357   1_554  S
O168        H172   0.965       .  S
O169       Zr767   2.373   1_554  S
O169        H174   0.963       .  S
O170       Zr750   2.365   1_455  S
H175        O752   0.990   1_554  S
H176        O772   0.990       .  S
H177        O771   0.990       .  S
H179        O769   0.990       .  S
H180        O749   0.990       .  S
H182        O751   0.990       .  S
H184        O749   0.990   1_554  S
H186        O772   0.991       .  S
C187        H188   1.112       .  S
C187        C193   1.539       .  S
C187        C192   1.529       .  S
C187        C191   1.540       .  S
C189        H190   1.105       .  S
C189        C195   1.558       .  S
C189        C194   1.538       .  S
C189        C196   1.557       .  S
C191        C194   1.375       .  D
C191        C596   1.485       .  S
C192        C195   1.374       .  D
C192        C279   1.507       .  S
C193        C196   1.391       .  D
C193        C391   1.495       .  S
C194        C580   1.486       .  S
C195        C260   1.502       .  S
C196        C404   1.525       .  S
C197        H198   1.097       .  S
C197        C203   1.559       .  S
C197        C202   1.549       .  S
C197        C201   1.539       .  S
C199        H200   1.112       .  S
C199        C205   1.545       .  S
C199        C204   1.532       .  S
C199        C206   1.552       .  S
C201        C204   1.365       .  D
C201        C564   1.467       .  S
C202        C205   1.378       .  D
C202        C372   1.517       .  S
C203        C206   1.399       .  D
C203        C292   1.552       .  S
C204        C548   1.495       .  S
C205        C356   1.499       .  S
C206        C311   1.492       .  S
C207        H208   1.104       .  S
C207        C213   1.570       .  S
C207        C212   1.542       .  S
C207        C211   1.542       .  S
C209        H210   1.112       .  S
C209        C215   1.553       .  S
C209        C214   1.532       .  S
C209        C216   1.548       .  S
C211        C214   1.365       .  D
C211        C503   1.495       .  S
C212        C215   1.373       .  D
C212        C468   1.503       .  S
C213        C216   1.390       .  D
C213        C228   1.526       .  S
C214        C487   1.460       .  S
C215        C452   1.518       .  S
C216        C247   1.506       .  S
C217        H218   1.103       .  S
C217        C223   1.565       .  S
C217        C222   1.548       .  S
C217        C221   1.545       .  S
C219        H220   1.111       .  S
C219        C225   1.558       .  S
C219        C224   1.538       .  S
C219        C226   1.544       .  S
C221        C224   1.371       .  D
C221        C519   1.490       .  S
C222        C225   1.381       .  D
C222        C439   1.509       .  S
C223        C226   1.391       .  D
C223        C324   1.536       .  S
C224        C532   1.488       .  S
C225        C420   1.516       .  S
C226        C343   1.507       .  S
C227        C228   1.397       .  A
C227        C232   1.397       .  A
C227        H234   1.082       .  S
C228        C229   1.421       .  A
C229        C230   1.414       .  A
C229        C236   1.505       .  S
C230        C231   1.409       .  A
C230        H235   1.084       .  S
C231        C232   1.430       .  A
C232        C233   1.510       .  S
C233        H237   1.111       .  S
C233        H238   1.106       .  S
C233        H239   1.108       .  S
C236        H240   1.109       .  S
C236        H241   1.110       .  S
C236        H242   1.111       .  S
C243        C244   1.406       .  A
C243        C248   1.402       .  A
C243        H250   1.084       .  S
C244        C245   1.414       .  A
C245        C246   1.406       .  A
C245        C252   1.510       .  S
C246        C247   1.408       .  A
C246        H251   1.073       .  S
C247        C248   1.412       .  A
C248        C249   1.500       .  S
C249        H253   1.110       .  S
C249        H254   1.104       .  S
C249        H255   1.110       .  S
C252        H256   1.109       .  S
C252        H257   1.110       .  S
C252        H258   1.111       .  S
C259        C260   1.404       .  A
C259        C264   1.397       .  A
C259        H266   1.077       .  S
C260        C261   1.419       .  A
C261        C262   1.413       .  A
C261        C268   1.505       .  S
C262        C263   1.406       .  A
C262        H267   1.084       .  S
C263        C264   1.411       .  A
C264        C265   1.510       .  S
C265        H269   1.111       .  S
C265        H270   1.108       .  S
C265        H271   1.111       .  S
C268        H272   1.108       .  S
C268        H273   1.111       .  S
C268        H274   1.110       .  S
C275        C276   1.405       .  A
C275        C280   1.414       .  A
C275        H282   1.084       .  S
C276        C277   1.419       .  A
C277        C278   1.408       .  A
C277        C284   1.506       .  S
C278        C279   1.401       .  A
C278        H283   1.084       .  S
C279        C280   1.425       .  A
C280        C281   1.505       .  S
C281        H285   1.111       .  S
C281        H286   1.103       .  S
C281        H287   1.110       .  S
C284        H288   1.105       .  S
C284        H289   1.111       .  S
C284        H290   1.111       .  S
C291        C292   1.418       .  A
C291        C296   1.422       .  A
C291        H298   1.074       .  S
C292        C293   1.420       .  A
C293        C294   1.402       .  A
C293        C300   1.503       .  S
C294        C295   1.410       .  A
C294        H299   1.084       .  S
C295        C296   1.420       .  A
C296        C297   1.507       .  S
C297        H301   1.111       .  S
C297        H302   1.110       .  S
C297        H303   1.111   1_655  S
C300        H304   1.111       .  S
C300        H305   1.101       .  S
C300        H306   1.111       .  S
C307        C308   1.409       .  A
C307        C312   1.408       .  A
C307        H314   1.084       .  S
C308        C309   1.416       .  A
C309        C310   1.399       .  A
C309        C316   1.509       .  S
C310        C311   1.404       .  A
C310        H315   1.078       .  S
C311        C312   1.412       .  A
C312        C313   1.507       .  S
C313        H317   1.111       .  S
C313        H318   1.109       .  S
C313        H319   1.110       .  S
C316        H320   1.110       .  S
C316        H321   1.110       .  S
C316        H322   1.111       .  S
C323        C324   1.412       .  A
C323        C328   1.414       .  A
C323        H330   1.070       .  S
C324        C325   1.415       .  A
C325        C326   1.406       .  A
C325        C332   1.507       .  S
C326        C327   1.413       .  A
C326        H331   1.083       .  S
C327        C328   1.419       .  A
C328        C329   1.507       .  S
C329        H333   1.111       .  S
C329        H334   1.110       .  S
C329        H335   1.109   1_655  S
C332        H336   1.110       .  S
C332        H337   1.110       .  S
C332        H338   1.111       .  S
C339        C340   1.391       .  A
C339        C344   1.397       .  A
C339        H346   1.086       .  S
C340        C341   1.417       .  A
C341        C342   1.414       .  A
C341        C348   1.505       .  S
C342        C343   1.405       .  A
C342        H347   1.083       .  S
C343        C344   1.427       .  A
C344        C345   1.495       .  S
C345        H349   1.110       .  S
C345        H350   1.106       .  S
C345        H351   1.093       .  S
C348        H352   1.107       .  S
C348        H353   1.111       .  S
C348        H354   1.111       .  S
C355        C356   1.406       .  A
C355        C360   1.399       .  A
C355        H362   1.074       .  S
C356        C357   1.415       .  A
C357        C358   1.411       .  A
C357        C364   1.504       .  S
C358        C359   1.406       .  A
C358        H363   1.084       .  S
C359        C360   1.409       .  A
C360        C361   1.510       .  S
C361        H365   1.111       .  S
C361        H366   1.109       .  S
C361        H367   1.110       .  S
C364        H368   1.106       .  S
C364        H369   1.110       .  S
C364        H370   1.111       .  S
C371        C372   1.408       .  A
C371        C376   1.415       .  A
C371        H378   1.080       .  S
C372        C373   1.419       .  A
C373        C374   1.416       .  A
C373        C380   1.504       .  S
C374        C375   1.408       .  A
C374        H379   1.084       .  S
C375        C376   1.415       .  A
C376        C377   1.503       .  S
C377        H381   1.111       .  S
C377        H382   1.110       .  S
C377        H383   1.109       .  S
C380        H384   1.110       .  S
C380        H385   1.109       .  S
C380        H386   1.110       .  S
C387        C388   1.405       .  A
C387        C392   1.410       .  A
C387        H394   1.074       .  S
C388        C389   1.402       .  A
C389        C390   1.389       .  A
C389        C396   1.508       .  S
C390        C391   1.412       .  A
C390        H395   1.075       .  S
C391        C392   1.410       .  A
C392        C393   1.505       .  S
C393        H397   1.111       .  S
C393        H398   1.110       .  S
C393        H399   1.106       .  S
C396        H400   1.109       .  S
C396        H401   1.106       .  S
C396        H402   1.111       .  S
C403        C404   1.407       .  A
C403        C408   1.414       .  A
C403        H410   1.084       .  S
C404        C405   1.432       .  A
C405        C406   1.409       .  A
C405        C412   1.498       .  S
C406        C407   1.398       .  A
C406        H411   1.085       .  S
C407        C408   1.423       .  A
C408        C409   1.507       .  S
C409        H413   1.111       .  S
C409        H414   1.108       .  S
C409        H415   1.111       .  S
C412        H416   1.093       .  S
C412        H417   1.108       .  S
C412        H418   1.112       .  S
C419        C420   1.412       .  A
C419        C424   1.417       .  A
C419        H426   1.082       .  S
C420        C421   1.414       .  A
C421        C422   1.412       .  A
C421        C428   1.506       .  S
C422        C423   1.409       .  A
C422        H427   1.084       .  S
C423        C424   1.420       .  A
C424        C425   1.507       .  S
C425        H429   1.111       .  S
C425        H430   1.111       .  S
C425        H431   1.110       .  S
C428        H432   1.106       .  S
C428        H433   1.110       .  S
C428        H434   1.111       .  S
C435        C436   1.411       .  A
C435        C440   1.421       .  A
C435        H442   1.083       .  S
C436        C437   1.406       .  A
C437        C438   1.390       .  A
C437        C444   1.511       .  S
C438        C439   1.400       .  A
C438        H443   1.061       .  S
C439        C440   1.416       .  A
C440        C441   1.503       .  S
C441        H445   1.111       .  S
C441        H446   1.108       .  S
C441        H447   1.110       .  S
C444        H448   1.105       .  S
C444        H449   1.111       .  S
C444        H450   1.110       .  S
C451        C452   1.412       .  A
C451        C456   1.417       .  A
C451        H458   1.082       .  S
C452        C453   1.415       .  A
C453        C454   1.410       .  A
C453        C460   1.500       .  S
C454        C455   1.405       .  A
C454        H459   1.085       .  S
C455        C456   1.416       .  A
C456        C457   1.505       .  S
C457        H461   1.111       .  S
C457        H462   1.110       .  S
C457        H463   1.110       .  S
C460        H464   1.109       .  S
C460        H465   1.106       .  S
C460        H466   1.110       .  S
C467        C468   1.401       .  A
C467        C472   1.408       .  A
C467        H474   1.084       .  S
C468        C469   1.422       .  A
C469        C470   1.400       .  A
C469        C476   1.489       .  S
C470        C471   1.390       .  A
C470        H475   1.085       .  S
C471        C472   1.411       .  A
C472        C473   1.494       .  S
C473        H477   1.111       .  S
C473        H478   1.111       .  S
C473        H479   1.110       .  S
C476        H480   1.104       .  S
C476        H481   1.106       .  S
C476        H482   1.111       .  S
C483        C484   1.394       .  A
C483        C488   1.392       .  A
C483        H490   1.081       .  S
C484        C485   1.401       .  A
C485        C486   1.381       .  A
C485        C492   1.509       .  S
C486        C487   1.398       .  A
C486        H491   1.076       .  S
C487        C488   1.415       .  A
C488        C489   1.502       .  S
C489        H493   1.109       .  S
C489        H494   1.111       .  S
C489        H495   1.098       .  S
C492        H496   1.108       .  S
C492        H497   1.108       .  S
C492        H498   1.111       .  S
C499        C500   1.396       .  A
C499        C504   1.391       .  A
C499        H506   1.085       .  S
C500        C501   1.417       .  A
C501        C502   1.405       .  A
C501        C508   1.508       .  S
C502        C503   1.407       .  A
C502        H507   1.082       .  S
C503        C504   1.412       .  A
C504        C505   1.495       .  S
C505        H509   1.110       .  S
C505        H510   1.104       .  S
C505        H511   1.097       .  S
C508        H512   1.111       .  S
C508        H513   1.110       .  S
C508        H514   1.111       .  S
C515        C516   1.396       .  A
C515        C520   1.389       .  A
C515        H522   1.086       .  S
C516        C517   1.405       .  A
C517        C518   1.399       .  A
C517        C524   1.505       .  S
C518        C519   1.412       .  A
C518        H523   1.082       .  S
C519        C520   1.417       .  A
C520        C521   1.503       .  S
C521        H525   1.094       .  S
C521        H526   1.111       .  S
C521        H527   1.111       .  S
C524        H528   1.109       .  S
C524        H529   1.110       .  S
C524        H530   1.111       .  S
C531        C532   1.406       .  A
C531        C536   1.389       .  A
C531        H538   1.073       .  S
C532        C533   1.423       .  A
C533        C534   1.394       .  A
C533        C540   1.506       .  S
C534        C535   1.400       .  A
C534        H539   1.086       .  S
C535        C536   1.403       .  A
C536        C537   1.511       .  S
C537        H541   1.111       .  S
C537        H542   1.111       .  S
C537        H543   1.108       .  S
C540        H544   1.111       .  S
C540        H545   1.094       .  S
C540        H546   1.111       .  S
C547        C548   1.402       .  A
C547        C552   1.399       .  A
C547        H554   1.078       .  S
C548        C549   1.421       .  A
C549        C550   1.403       .  A
C549        C556   1.505       .  S
C550        C551   1.402       .  A
C550        H555   1.085       .  S
C551        C552   1.413       .  A
C552        C553   1.510       .  S
C553        H557   1.111       .  S
C553        H558   1.108       .  S
C553        H559   1.111       .  S
C556        H560   1.101       .  S
C556        H561   1.110       .  S
C556        H562   1.111       .  S
C563        C564   1.400       .  A
C563        C568   1.385       .  A
C563        H570   1.078       .  S
C564        C565   1.418       .  A
C565        C566   1.392       .  A
C565        C572   1.503       .  S
C566        C567   1.394       .  A
C566        H571   1.086       .  S
C567        C568   1.403       .  A
C568        C569   1.510       .  S
C569        H573   1.111       .  S
C569        H574   1.109       .  S
C569        H575   1.111       .  S
C572        H576   1.110       .  S
C572        H577   1.094       .  S
C572        H578   1.111       .  S
C579        C580   1.404       .  A
C579        C584   1.392       .  A
C579        H586   1.081       .  S
C580        C581   1.420       .  A
C581        C582   1.392       .  A
C581        C588   1.501       .  S
C582        C583   1.396       .  A
C582        H587   1.085       .  S
C583        C584   1.410       .  A
C584        C585   1.504       .  S
C585        H589   1.111       .  S
C585        H590   1.110       .  S
C585        H591   1.103       .  S
C588        H592   1.098       .  S
C588        H593   1.102       .  S
C588        H594   1.111       .  S
C595        C596   1.400       .  A
C595        C600   1.390       .  A
C595        H602   1.080       .  S
C596        C597   1.425       .  A
C597        C598   1.400       .  A
C597        C604   1.502       .  S
C598        C599   1.394       .  A
C598        H603   1.085       .  S
C599        C600   1.406       .  A
C600        C601   1.507       .  S
C601        H605   1.111       .  S
C601        H606   1.107       .  S
C601        H607   1.109       .  S
C604        H608   1.111       .  S
C604        H609   1.094       .  S
C604        H610   1.111       .  S
O611       Zr623   2.435       .  S
O611        C613   1.286       .  A
O612       Zr649   2.384       .  S
O612        C613   1.277       .  A
C613       C1209   1.446       .  S
O614        C616   1.281       .  A
O615       Zr650   2.446       .  S
O615        C616   1.290       .  A
C616       C1161   1.484       .  S
O617       Zr626   2.414       .  S
O617        C619   1.282       .  A
O618       Zr649   2.381       .  S
O618        C619   1.276       .  A
C619       C1177   1.437       .  S
O620        C622   1.283       .  A
O621       Zr650   2.382       .  S
O621        C622   1.278       .  A
C622       C1193   1.454       .  S
Zr623       O624   2.436       .  S
Zr623       O629   2.360       .  S
Zr623       O655   2.366       .  S
O624        H667   0.990       .  S
Zr626       O627   2.436       .  S
Zr626       O629   2.379       .  S
Zr626       O654   2.360       .  S
O627        H671   0.990       .  S
O629       Zr649   2.376       .  S
O630       Zr650   2.380       .  S
O630        H657   0.968       .  S
O631       Zr643   2.397   1_556  S
O631        C633   1.279       .  A
O632       Zr650   2.414       .  S
O632        C633   1.284       .  A
C633       C1094   1.443       .  S
O634        C636   1.284       .  A
O635       Zr649   2.366       .  S
O635        C636   1.276       .  A
C636       C1145   1.453       .  S
O637       Zr646   2.425   1_556  S
O637        C639   1.285       .  A
O638       Zr650   2.402       .  S
O638        C639   1.280       .  A
C639       C1126   1.458       .  S
O640        C642   1.290       .  A
O641       Zr649   2.391       .  S
O641        C642   1.277       .  A
C642       C1110   1.476       .  S
Zr643       O645   2.434       .  S
Zr643       O651   2.378   1_554  S
Zr643       O653   2.379   1_554  S
O645        H665   0.990   1_554  S
Zr646       O647   2.437   1_554  S
Zr646       O651   2.360   1_554  S
Zr646       O656   2.374   1_554  S
Zr649       O652   2.367       .  S
Zr649       O654   2.376       .  S
Zr649       O655   2.367       .  S
Zr650       O651   2.386       .  S
Zr650       O653   2.381       .  S
Zr650       O656   2.372       .  S
O651        H659   0.962       .  S
O654        H658   0.966       .  S
O655        H660   0.965       .  S
O673       Zr685   2.455       .  S
O673        C675   1.291       .  A
O674       Zr711   2.426       .  S
O674        C675   1.287       .  A
C675       C1081   1.477       .  S
O676        C678   1.291       .  A
O677       Zr712   2.431       .  S
O677        C678   1.287       .  A
C678       C1046   1.478       .  S
O679       Zr688   2.463       .  S
O679        C681   1.293       .  A
O680       Zr711   2.474       .  S
O680        C681   1.296       .  A
C681       C1033   1.514       .  S
O682        C684   1.294       .  A
O683       Zr712   2.454       .  S
O683        C684   1.292       .  A
C684       C1065   1.500       .  S
Zr685       O686   2.434       .  S
Zr685       O691   2.385       .  S
Zr685       O717   2.370       .  S
O686        H729   0.989       .  S
Zr688       O689   2.436       .  S
Zr688       O691   2.381       .  S
Zr688       O716   2.361       .  S
O689        H733   0.990       .  S
O691       Zr711   2.398       .  S
O692       Zr712   2.394       .  S
O692        H719   0.964       .  S
O693       Zr705   2.443       .  S
O693        C695   1.287       .  A
O694      Zr1932   2.455   1_545  S
O694        C695   1.293       .  A
C695       C1017   1.505       .  S
O696        C698   1.295       .  A
O697      Zr1931   2.464   1_545  S
O697        C698   1.293       .  A
C698        C985   1.506       .  S
O699       Zr708   2.454       .  S
O699        C701   1.290       .  A
O700      Zr1932   2.441   1_545  S
O700        C701   1.289       .  A
C701        C969   1.484       .  S
O702        C704   1.280       .  A
O703      Zr1931   2.455   1_545  S
O703        C704   1.293       .  A
C704        C998   1.464       .  S
Zr705       O713   2.366       .  S
Zr705      O1327   2.374   1_546  S
Zr705      O1935   2.361   1_545  S
Zr708       O709   2.435       .  S
Zr708       O713   2.388       .  S
Zr708      O1938   2.376   1_545  S
Zr708      O1326   2.371   1_546  S
Zr711      O1917   2.459       .  S
Zr711      O1923   2.452       .  S
Zr711      O1934   2.397       .  S
Zr711       O716   2.382       .  S
Zr711       O717   2.399       .  S
Zr712      O1914   2.457       .  S
Zr712      O1920   2.437       .  S
Zr712      O1933   2.394       .  S
Zr712       O715   2.375       .  S
Zr712       O718   2.393       .  S
O713      Zr1932   2.392   1_545  S
O713        H721   0.966       .  S
O714      Zr1931   2.395   1_545  S
O715      Zr1925   2.360       .  S
O716      Zr1318   2.366       .  S
O716        H720   0.965       .  S
O717      Zr1315   2.372       .  S
O717        H722   0.966       .  S
O718      Zr1928   2.376       .  S
O735       Zr747   2.447       .  S
O735        C737   1.286       .  A
O736       Zr773   2.436   1_655  S
O736        C737   1.290       .  A
C737        C950   1.480       .  S
O738        C740   1.291       .  A
O739       Zr774   2.422   1_655  S
O739        C740   1.287       .  A
C740        C918   1.490       .  S
O741       Zr750   2.424       .  S
O741        C743   1.286       .  A
O742       Zr773   2.479   1_655  S
O742        C743   1.297       .  A
C743        C905   1.512       .  S
O744        C746   1.288       .  A
O745       Zr774   2.460   1_655  S
O745        C746   1.293       .  A
C746        C937   1.512       .  S
Zr747       O748   2.435       .  S
Zr747       O753   2.371       .  S
Zr747       O779   2.369   1_655  S
O748        H791   0.990       .  S
Zr750       O751   2.437       .  S
Zr750       O753   2.380       .  S
Zr750       O778   2.375   1_655  S
O751        H795   0.990       .  S
O753       Zr773   2.407   1_655  S
O754       Zr774   2.395   1_655  S
O754        H781   0.964       .  S
O755       Zr767   2.445       .  S
O755        C757   1.288       .  A
O756       Zr774   2.428       .  S
O756        C757   1.286       .  A
C757        C854   1.494       .  S
O758        C760   1.292       .  A
O759       Zr773   2.465       .  S
O759        C760   1.294       .  A
C760        C886   1.504       .  S
O761       Zr770   2.438       .  S
O761        C763   1.287       .  A
O762       Zr774   2.449       .  S
O762        C763   1.291       .  A
C763        C873   1.485       .  S
O764        C766   1.280       .  A
O765       Zr773   2.485       .  S
O765        C766   1.299       .  A
C766        C841   1.503       .  S
Zr767       O768   2.436       .  S
Zr767       O775   2.355       .  S
Zr767       O777   2.354       .  S
O768        H788   0.990       .  S
O768        H793   0.988   1_556  S
Zr770       O771   2.435   1_556  S
Zr770       O775   2.380       .  S
Zr770       O780   2.376       .  S
Zr773       O776   2.398       .  S
Zr773       O778   2.399       .  S
Zr773       O779   2.405       .  S
Zr774       O775   2.390       .  S
Zr774       O777   2.375       .  S
Zr774       O780   2.386       .  S
O775        H783   0.965       .  S
O778        H782   0.965       .  S
O779        H784   0.964       .  S
C797        H798   1.112       .  S
C797        C803   1.537       .  S
C797        C802   1.530       .  S
C797        C801   1.539       .  S
C799        H800   1.107       .  S
C799        C805   1.558       .  S
C799        C804   1.533       .  S
C799        C806   1.555       .  S
C801        C804   1.371       .  D
C801       C1206   1.480       .  S
C802        C805   1.378       .  D
C802        C889   1.511       .  S
C803        C806   1.388       .  D
C803       C1001   1.491       .  S
C804       C1190   1.481       .  S
C805        C870   1.505       .  S
C806       C1014   1.523       .  S
C807        H808   1.098       .  S
C807        C813   1.563       .  S
C807        C812   1.550       .  S
C807        C811   1.532       .  S
C809        H810   1.112       .  S
C809        C815   1.549       .  S
C809        C814   1.537       .  S
C809        C816   1.553       .  S
C811        C814   1.367       .  D
C811       C1174   1.467       .  S
C812        C815   1.377       .  D
C812        C982   1.519       .  S
C813        C816   1.401       .  D
C813        C902   1.549       .  S
C814       C1158   1.497       .  S
C815        C966   1.503       .  S
C816        C921   1.500       .  S
C817        H818   1.104       .  S
C817        C823   1.566       .  S
C817        C822   1.543       .  S
C817        C821   1.544       .  S
C819        H820   1.112       .  S
C819        C825   1.551       .  S
C819        C824   1.533       .  S
C819        C826   1.549       .  S
C821        C824   1.368       .  D
C821       C1113   1.494       .  S
C822        C825   1.372       .  D
C822       C1078   1.504       .  S
C823        C826   1.392       .  D
C823        C838   1.527       .  S
C824       C1097   1.467       .  S
C825       C1062   1.514       .  S
C826        C857   1.508       .  S
C827        H828   1.104       .  S
C827        C833   1.565       .  S
C827        C832   1.551       .  S
C827        C831   1.543       .  S
C829        H830   1.111       .  S
C829        C835   1.559       .  S
C829        C834   1.538       .  S
C829        C836   1.546       .  S
C831        C834   1.370       .  D
C831       C1129   1.489       .  S
C832        C835   1.382       .  D
C832       C1049   1.512       .  S
C833        C836   1.391       .  D
C833        C934   1.538       .  S
C834       C1142   1.486       .  S
C835       C1030   1.519       .  S
C836        C953   1.508       .  S
C837        C838   1.401       .  A
C837        C842   1.402       .  A
C837        H844   1.082       .  S
C838        C839   1.418       .  A
C839        C840   1.412       .  A
C839        C846   1.504       .  S
C840        C841   1.408       .  A
C840        H845   1.084       .  S
C841        C842   1.431       .  A
C842        C843   1.510       .  S
C843        H847   1.111       .  S
C843        H848   1.108       .  S
C843        H849   1.110       .  S
C846        H850   1.109       .  S
C846        H851   1.109       .  S
C846        H852   1.111       .  S
C853        C854   1.408       .  A
C853        C858   1.404       .  A
C853        H860   1.084       .  S
C854        C855   1.416       .  A
C855        C856   1.407       .  A
C855        C862   1.510       .  S
C856        C857   1.408       .  A
C856        H861   1.073       .  S
C857        C858   1.412       .  A
C858        C859   1.501       .  S
C859        H863   1.110       .  S
C859        H864   1.105       .  S
C859        H865   1.110       .  S
C862        H866   1.109       .  S
C862        H867   1.110       .  S
C862        H868   1.111       .  S
C869        C870   1.407       .  A
C869        C874   1.398       .  A
C869        H876   1.076       .  S
C870        C871   1.418       .  A
C871        C872   1.413       .  A
C871        C878   1.505       .  S
C872        C873   1.407       .  A
C872        H877   1.084       .  S
C873        C874   1.412       .  A
C874        C875   1.511       .  S
C875        H879   1.111       .  S
C875        H880   1.109       .  S
C875        H881   1.111       .  S
C878        H882   1.108       .  S
C878        H883   1.111       .  S
C878        H884   1.110       .  S
C885        C886   1.406       .  A
C885        C890   1.415       .  A
C885        H892   1.084       .  S
C886        C887   1.420       .  A
C887        C888   1.410       .  A
C887        C894   1.507       .  S
C888        C889   1.404       .  A
C888        H893   1.084       .  S
C889        C890   1.424       .  A
C890        C891   1.505       .  S
C891        H895   1.111       .  S
C891        H896   1.102       .  S
C891        H897   1.110       .  S
C894        H898   1.106       .  S
C894        H899   1.111       .  S
C894        H900   1.111       .  S
C901        C902   1.417       .  A
C901        C906   1.420       .  A
C901        H908   1.074       .  S
C902        C903   1.419       .  A
C903        C904   1.399       .  A
C903        C910   1.503       .  S
C904        C905   1.410       .  A
C904        H909   1.084       .  S
C905        C906   1.419       .  A
C906        C907   1.507       .  S
C907        H911   1.111       .  S
C907        H912   1.110       .  S
C907        H913   1.111   1_655  S
C910        H914   1.111       .  S
C910        H915   1.101       .  S
C910        H916   1.111       .  S
C917        C918   1.409       .  A
C917        C922   1.411       .  A
C917        H924   1.084       .  S
C918        C919   1.414       .  A
C919        C920   1.401       .  A
C919        C926   1.509       .  S
C920        C921   1.404       .  A
C920        H925   1.071       .  S
C921        C922   1.413       .  A
C922        C923   1.505       .  S
C923        H927   1.111       .  S
C923        H928   1.109       .  S
C923        H929   1.110       .  S
C926        H930   1.110       .  S
C926        H931   1.110       .  S
C926        H932   1.111       .  S
C933        C934   1.413       .  A
C933        C938   1.414       .  A
C933        H940   1.069       .  S
C934        C935   1.416       .  A
C935        C936   1.407       .  A
C935        C942   1.507       .  S
C936        C937   1.413       .  A
C936        H941   1.083       .  S
C937        C938   1.420       .  A
C938        C939   1.507       .  S
C939        H943   1.111       .  S
C939        H944   1.109       .  S
C939        H945   1.109       .  S
C942        H946   1.110       .  S
C942        H947   1.110       .  S
C942        H948   1.110       .  S
C949        C950   1.390       .  A
C949        C954   1.396       .  A
C949        H956   1.086       .  S
C950        C951   1.417       .  A
C951        C952   1.413       .  A
C951        C958   1.505       .  S
C952        C953   1.405       .  A
C952        H957   1.083       .  S
C953        C954   1.429       .  A
C954        C955   1.493       .  S
C955        H959   1.111       .  S
C955        H960   1.107       .  S
C955        H961   1.090       .  S
C958        H962   1.107       .  S
C958        H963   1.111       .  S
C958        H964   1.110       .  S
C965        C966   1.406       .  A
C965        C970   1.401       .  A
C965        H972   1.078       .  S
C966        C967   1.418       .  A
C967        C968   1.413       .  A
C967        C974   1.505       .  S
C968        C969   1.406       .  A
C968        H973   1.083       .  S
C969        C970   1.410       .  A
C970        C971   1.509       .  S
C971        H975   1.111       .  S
C971        H976   1.109       .  S
C971        H977   1.110       .  S
C974        H978   1.106       .  S
C974        H979   1.110       .  S
C974        H980   1.111       .  S
C981        C982   1.411       .  A
C981        C986   1.418       .  A
C981        H988   1.080       .  S
C982        C983   1.417       .  A
C983        C984   1.413       .  A
C983        C990   1.503       .  S
C984        C985   1.406       .  A
C984        H989   1.085       .  S
C985        C986   1.417       .  A
C986        C987   1.504       .  S
C987        H991   1.111       .  S
C987        H992   1.110       .  S
C987        H993   1.108       .  S
C990        H994   1.111       .  S
C990        H995   1.108       .  S
C990        H996   1.110       .  S
C997        C998   1.405       .  A
C997       C1002   1.409       .  A
C997       H1004   1.075       .  S
C998        C999   1.403       .  A
C999       C1000   1.389       .  A
C999       C1006   1.509       .  S
C1000      C1001   1.411       .  A
C1000      H1005   1.077       .  S
C1001      C1002   1.409       .  A
C1002      C1003   1.505       .  S
C1003      H1007   1.111       .  S
C1003      H1008   1.110       .  S
C1003      H1009   1.107       .  S
C1006      H1010   1.108       .  S
C1006      H1011   1.108       .  S
C1006      H1012   1.111       .  S
C1013      C1014   1.407       .  A
C1013      C1018   1.412       .  A
C1013      H1020   1.084       .  S
C1014      C1015   1.433       .  A
C1015      C1016   1.409       .  A
C1015      C1022   1.499       .  S
C1016      C1017   1.399       .  A
C1016      H1021   1.085       .  S
C1017      C1018   1.422       .  A
C1018      C1019   1.506       .  S
C1019      H1023   1.111       .  S
C1019      H1024   1.109       .  S
C1019      H1025   1.110       .  S
C1022      H1026   1.095       .  S
C1022      H1027   1.107       .  S
C1022      H1028   1.112       .  S
C1029      C1030   1.412       .  A
C1029      C1034   1.418       .  A
C1029      H1036   1.082       .  S
C1030      C1031   1.414       .  A
C1031      C1032   1.414       .  A
C1031      C1038   1.506       .  S
C1032      C1033   1.411       .  A
C1032      H1037   1.084       .  S
C1033      C1034   1.420       .  A
C1034      C1035   1.507       .  S
C1035      H1039   1.111       .  S
C1035      H1040   1.111       .  S
C1035      H1041   1.110       .  S
C1038      H1042   1.106       .  S
C1038      H1043   1.110       .  S
C1038      H1044   1.110       .  S
C1045      C1046   1.410       .  A
C1045      C1050   1.421       .  A
C1045      H1052   1.083       .  S
C1046      C1047   1.405       .  A
C1047      C1048   1.390       .  A
C1047      C1054   1.511       .  S
C1048      C1049   1.402       .  A
C1048      H1053   1.059       .  S
C1049      C1050   1.417       .  A
C1050      C1051   1.503       .  S
C1051      H1055   1.110       .  S
C1051      H1056   1.106       .  S
C1051      H1057   1.110       .  S
C1054      H1058   1.106       .  S
C1054      H1059   1.110       .  S
C1054      H1060   1.110       .  S
C1061      C1062   1.411       .  A
C1061      C1066   1.416       .  A
C1061      H1068   1.083       .  S
C1062      C1063   1.415       .  A
C1063      C1064   1.411       .  A
C1063      C1070   1.502       .  S
C1064      C1065   1.405       .  A
C1064      H1069   1.085       .  S
C1065      C1066   1.416       .  A
C1066      C1067   1.505       .  S
C1067      H1071   1.111       .  S
C1067      H1072   1.110       .  S
C1067      H1073   1.110       .  S
C1070      H1074   1.109       .  S
C1070      H1075   1.107       .  S
C1070      H1076   1.111       .  S
C1077      C1078   1.403       .  A
C1077      C1082   1.409       .  A
C1077      H1084   1.084       .  S
C1078      C1079   1.422       .  A
C1079      C1080   1.399       .  A
C1079      C1086   1.489       .  S
C1080      C1081   1.390       .  A
C1080      H1085   1.085       .  S
C1081      C1082   1.412       .  A
C1082      C1083   1.495       .  S
C1083      H1087   1.111       .  S
C1083      H1088   1.111       .  S
C1083      H1089   1.110       .  S
C1086      H1090   1.103       .  S
C1086      H1091   1.106       .  S
C1086      H1092   1.111       .  S
C1093      C1094   1.395       .  A
C1093      C1098   1.394       .  A
C1093      H1100   1.079       .  S
C1094      C1095   1.402       .  A
C1095      C1096   1.385       .  A
C1095      C1102   1.509       .  S
C1096      C1097   1.399       .  A
C1096      H1101   1.076       .  S
C1097      C1098   1.416       .  A
C1098      C1099   1.501       .  S
C1099      H1103   1.107       .  S
C1099      H1104   1.110       .  S
C1099      H1105   1.098       .  S
C1102      H1106   1.108       .  S
C1102      H1107   1.109       .  S
C1102      H1108   1.111       .  S
C1109      C1110   1.397       .  A
C1109      C1114   1.392       .  A
C1109      H1116   1.085       .  S
C1110      C1111   1.419       .  A
C1111      C1112   1.405       .  A
C1111      C1118   1.508       .  S
C1112      C1113   1.405       .  A
C1112      H1117   1.082       .  S
C1113      C1114   1.414       .  A
C1114      C1115   1.496       .  S
C1115      H1119   1.110       .  S
C1115      H1120   1.107       .  S
C1115      H1121   1.096       .  S
C1118      H1122   1.111       .  S
C1118      H1123   1.110       .  S
C1118      H1124   1.111       .  S
C1125      C1126   1.395       .  A
C1125      C1130   1.388       .  A
C1125      H1132   1.086       .  S
C1126      C1127   1.408       .  A
C1127      C1128   1.400       .  A
C1127      C1134   1.505       .  S
C1128      C1129   1.412       .  A
C1128      H1133   1.083       .  S
C1129      C1130   1.416       .  A
C1130      C1131   1.504       .  S
C1131      H1135   1.093       .  S
C1131      H1136   1.110       .  S
C1131      H1137   1.111       .  S
C1134      H1138   1.108       .  S
C1134      H1139   1.110       .  S
C1134      H1140   1.111       .  S
C1141      C1142   1.407       .  A
C1141      C1146   1.389       .  A
C1141      H1148   1.073       .  S
C1142      C1143   1.423       .  A
C1143      C1144   1.390       .  A
C1143      C1150   1.506       .  S
C1144      C1145   1.400       .  A
C1144      H1149   1.086       .  S
C1145      C1146   1.402       .  A
C1146      C1147   1.510       .  S
C1147      H1151   1.111       .  S
C1147      H1152   1.111       .  S
C1147      H1153   1.108       .  S
C1150      H1154   1.111       .  S
C1150      H1155   1.092       .  S
C1150      H1156   1.111       .  S
C1157      C1158   1.401       .  A
C1157      C1162   1.401       .  A
C1157      H1164   1.077       .  S
C1158      C1159   1.421       .  A
C1159      C1160   1.405       .  A
C1159      C1166   1.504       .  S
C1160      C1161   1.403       .  A
C1160      H1165   1.085       .  S
C1161      C1162   1.418       .  A
C1162      C1163   1.511       .  S
C1163      H1167   1.112       .  S
C1163      H1168   1.108       .  S
C1163      H1169   1.110       .  S
C1166      H1170   1.100       .  S
C1166      H1171   1.110       .  S
C1166      H1172   1.111       .  S
C1173      C1174   1.398       .  A
C1173      C1178   1.386       .  A
C1173      H1180   1.081       .  S
C1174      C1175   1.415       .  A
C1175      C1176   1.396       .  A
C1175      C1182   1.500       .  S
C1176      C1177   1.394       .  A
C1176      H1181   1.085       .  S
C1177      C1178   1.404       .  A
C1178      C1179   1.509       .  S
C1179      H1183   1.111       .  S
C1179      H1184   1.110       .  S
C1179      H1185   1.110       .  S
C1182      H1186   1.108       .  S
C1182      H1187   1.106       .  S
C1182      H1188   1.111       .  S
C1189      C1190   1.403       .  A
C1189      C1194   1.391       .  A
C1189      H1196   1.082       .  S
C1190      C1191   1.419       .  A
C1191      C1192   1.390       .  A
C1191      C1198   1.500       .  S
C1192      C1193   1.393       .  A
C1192      H1197   1.085       .  S
C1193      C1194   1.407       .  A
C1194      C1195   1.501       .  S
C1195      H1199   1.111       .  S
C1195      H1200   1.109       .  S
C1195      H1201   1.104       .  S
C1198      H1202   1.099       .  S
C1198      H1203   1.101       .  S
C1198      H1204   1.111       .  S
C1205      C1206   1.400       .  A
C1205      C1210   1.388       .  A
C1205      H1212   1.080       .  S
C1206      C1207   1.424       .  A
C1207      C1208   1.396       .  A
C1207      C1214   1.502       .  S
C1208      C1209   1.393       .  A
C1208      H1213   1.085       .  S
C1209      C1210   1.406       .  A
C1210      C1211   1.508       .  S
C1211      H1215   1.111       .  S
C1211      H1216   1.107       .  S
C1211      H1217   1.109       .  S
C1214      H1218   1.111       .  S
C1214      H1219   1.091       .  S
C1214      H1220   1.111       .  S
O1221     Zr1233   2.429   1_554  S
O1221      C1223   1.284       .  A
O1222     Zr1259   2.391       .  S
O1222      C1223   1.278       .  A
C1223      C1819   1.447       .  S
O1224     Zr1846   2.408       .  S
O1224      C1226   1.280       .  A
O1225     Zr1260   2.433       .  S
O1225      C1226   1.288       .  A
C1226      C1771   1.473       .  S
O1227     Zr1236   2.424   1_554  S
O1227      C1229   1.283       .  A
O1228     Zr1259   2.358       .  S
O1228      C1229   1.272       .  A
C1229      C1787   1.434       .  S
O1230     Zr1843   2.425       .  S
O1230      C1232   1.286       .  A
O1231     Zr1260   2.389       .  S
O1231      C1232   1.278       .  A
C1232      C1803   1.467       .  S
Zr1233     O1840   2.422       .  S
Zr1233     O1234   2.436       .  S
Zr1233     O1845   2.439       .  S
Zr1233     O1239   2.366   1_556  S
Zr1233     O1850   2.360       .  S
Zr1233     O1873   2.367       .  S
Zr1233     O1265   2.368   1_556  S
O1234      H1277   0.990   1_556  S
O1235     Zr1843   2.437       .  S
O1235      H1886   0.990       .  S
O1235      H1890   0.990       .  S
Zr1236     O1834   2.421       .  S
Zr1236     O1237   2.437       .  S
Zr1236     O1848   2.435       .  S
Zr1236     O1850   2.367       .  S
Zr1236     O1239   2.373   1_556  S
Zr1236     O1264   2.359   1_556  S
Zr1236     O1876   2.364       .  S
O1237      H1888   0.990   1_556  S
O1237      H1281   0.990       .  S
O1238     Zr1846   2.435       .  S
O1238      H1881   0.990       .  S
O1239     Zr1259   2.378       .  S
O1240     Zr1843   2.356       .  S
O1240     Zr1846   2.369       .  S
O1240     Zr1260   2.377       .  S
O1240      H1267   0.968       .  S
O1241     Zr1253   2.392       .  S
O1241      C1243   1.278       .  A
O1242     Zr1260   2.405       .  S
O1242      C1243   1.283       .  A
C1243      C1704   1.435       .  S
O1244     Zr1866   2.419       .  S
O1244      C1246   1.283       .  A
O1245     Zr1259   2.379       .  S
O1245      C1246   1.277       .  A
C1246      C1755   1.455       .  S
O1247     Zr1256   2.429       .  S
O1247      C1249   1.286       .  A
O1248     Zr1260   2.399       .  S
O1248      C1249   1.280       .  A
C1249      C1736   1.464       .  S
O1250     Zr1863   2.461       .  S
O1250      C1252   1.293       .  A
O1251     Zr1259   2.381       .  S
O1251      C1252   1.275       .  A
C1252      C1720   1.476       .  S
Zr1253     O1860   2.449       .  S
Zr1253     O1864   2.436       .  S
Zr1253     O1255   2.436       .  S
Zr1253     O1261   2.384       .  S
Zr1253     O1872   2.357       .  S
Zr1253     O1875   2.341       .  S
Zr1253     O1263   2.381       .  S
O1254     Zr1863   2.435       .  S
O1254      H1884   0.990       .  S
O1254      H1889   0.990       .  S
O1255      H1275   0.990       .  S
Zr1256     O1854   2.419       .  S
Zr1256     O1257   2.435       .  S
Zr1256     O1868   2.437       .  S
Zr1256     O1872   2.372       .  S
Zr1256     O1261   2.356       .  S
Zr1256     O1266   2.366       .  S
Zr1256     O1874   2.377       .  S
O1257      H1883   0.990       .  S
O1258     Zr1866   2.438       .  S
O1258      H1882   0.990   1_554  S
O1258      H1892   0.990   1_554  S
Zr1259     O1262   2.366       .  S
Zr1259     O1264   2.375       .  S
Zr1259     O1265   2.367       .  S
Zr1260     O1261   2.387       .  S
Zr1260     O1263   2.380       .  S
Zr1260     O1266   2.368       .  S
O1261      H1269   0.968       .  S
O1262     Zr1863   2.356       .  S
O1262     Zr1866   2.367       .  S
O1263     Zr1843   2.366       .  S
O1264     Zr1866   2.373       .  S
O1264      H1268   0.966       .  S
O1265     Zr1863   2.340       .  S
O1265      H1270   0.963       .  S
O1266     Zr1846   2.362       .  S
H1271      O1848   0.990       .  S
H1272      O1868   0.990       .  S
H1273      O1867   0.990       .  S
H1274      O1864   0.990       .  S
H1276      O1845   0.990   1_554  S
H1278      O1847   0.990       .  S
H1279      O1864   0.990       .  S
H1280      O1845   0.990   1_554  S
H1282      O1868   0.990       .  S
O1283     Zr1295   2.455   1_554  S
O1283      C1285   1.290       .  A
O1284     Zr1321   2.437       .  S
O1284      C1285   1.289       .  A
C1285      C1691   1.482       .  S
O1286     Zr1908   2.455       .  S
O1286      C1288   1.291       .  A
O1287     Zr1322   2.425       .  S
O1287      C1288   1.286       .  A
C1288      C1656   1.474       .  S
O1289     Zr1298   2.467   1_554  S
O1289      C1291   1.294       .  A
O1290     Zr1321   2.466       .  S
O1290      C1291   1.294       .  A
C1291      C1643   1.509       .  S
O1292     Zr1905   2.468       .  S
O1292      C1294   1.293       .  A
O1293     Zr1322   2.457       .  S
O1293      C1294   1.292       .  A
C1294      C1675   1.501       .  S
Zr1295     O1902   2.467       .  S
Zr1295     O1296   2.436       .  S
Zr1295     O1907   2.437       .  S
Zr1295     O1301   2.381   1_556  S
Zr1295     O1912   2.374       .  S
Zr1295     O1935   2.368       .  S
Zr1295     O1327   2.374   1_556  S
O1296      H1339   0.990       .  S
O1297     Zr1905   2.436       .  S
O1297      H1948   0.990       .  S
O1297      H1952   0.990       .  S
Zr1298     O1896   2.453       .  S
Zr1298     O1299   2.436       .  S
Zr1298     O1910   2.433   1_556  S
Zr1298     O1912   2.384       .  S
Zr1298     O1301   2.374   1_556  S
Zr1298     O1326   2.365   1_556  S
Zr1298     O1938   2.371       .  S
O1299      H1950   0.990       .  S
O1299      H1343   0.990   1_556  S
O1300     Zr1908   2.437       .  S
O1300      H1943   0.990       .  S
O1301     Zr1321   2.396       .  S
O1302     Zr1905   2.376       .  S
O1302     Zr1908   2.384       .  S
O1302     Zr1322   2.400       .  S
O1302      H1329   0.966       .  S
O1303     Zr1315   2.448       .  S
O1303      C1305   1.287       .  A
O1304      C1305   1.295       .  A
C1305      C1627   1.509       .  S
O1306     Zr1928   2.480   1_554  S
O1306      C1308   1.295       .  A
O1307      C1308   1.293       .  A
C1308      C1595   1.505       .  S
O1309     Zr1318   2.446       .  S
O1309      C1311   1.289       .  A
O1310      C1311   1.288       .  A
C1311      C1579   1.478       .  S
O1312     Zr1925   2.410   1_554  S
O1312      C1314   1.281       .  A
O1313      C1314   1.292       .  A
C1314      C1608   1.471       .  S
Zr1315     O1922   2.414       .  S
Zr1315     O1926   2.437       .  S
Zr1315     O1927   2.434       .  S
Zr1315     O1323   2.367       .  S
Zr1315     O1934   2.390       .  S
O1316     Zr1925   2.437       .  S
O1316      H1946   0.990       .  S
O1316      H1951   0.990       .  S
O1317     Zr1925   2.434       .  S
O1317      H1947   0.990       .  S
Zr1318     O1916   2.478       .  S
Zr1318     O1319   2.436       .  S
Zr1318     O1930   2.436       .  S
Zr1318     O1934   2.371       .  S
Zr1318     O1323   2.391       .  S
O1319      H1945   0.990       .  S
O1320     Zr1928   2.435       .  S
O1320      H1944   0.990       .  S
O1320      H1954   0.990       .  S
Zr1321     O1326   2.388       .  S
Zr1321     O1327   2.398       .  S
Zr1322     O1325   2.370       .  S
Zr1322     O1328   2.393       .  S
O1323      H1331   0.966       .  S
O1324     Zr1925   2.387   1_554  S
O1324     Zr1928   2.374   1_554  S
O1325     Zr1905   2.366       .  S
O1326      H1330   0.965       .  S
O1327      H1332   0.966       .  S
O1328     Zr1908   2.368       .  S
H1333      O1910   0.990   1_556  S
H1334      O1930   0.990       .  S
H1335      O1929   0.990       .  S
H1336      O1926   0.990       .  S
H1337      O1927   0.990       .  S
H1338      O1907   0.990   1_554  S
H1340      O1909   0.990       .  S
H1341      O1926   0.990       .  S
H1342      O1907   0.990   1_554  S
H1344      O1930   0.990       .  S
O1345     Zr1357   2.454   1_554  S
O1345      C1347   1.287       .  A
O1346     Zr1383   2.432   1_655  S
O1346      C1347   1.290       .  A
C1347      C1560   1.480       .  S
O1348     Zr1970   2.452       .  S
O1348      C1350   1.290       .  A
O1349     Zr1384   2.431   1_655  S
O1349      C1350   1.288       .  A
C1350      C1528   1.492       .  S
O1351     Zr1360   2.427   1_554  S
O1351      C1353   1.287       .  A
O1352     Zr1383   2.479   1_655  S
O1352      C1353   1.297       .  A
C1353      C1515   1.511       .  S
O1354     Zr1967   2.443       .  S
O1354      C1356   1.288       .  A
O1355     Zr1384   2.449   1_655  S
O1355      C1356   1.290       .  A
C1356      C1547   1.507       .  S
Zr1357     O1964   2.435       .  S
Zr1357     O1358   2.435       .  S
Zr1357     O1969   2.439       .  S
Zr1357     O1363   2.368   1_556  S
Zr1357     O1974   2.371       .  S
Zr1357     O1997   2.369   1_655  S
Zr1357     O1389   2.370   1_656  S
O1358      H1401   0.990   1_556  S
O1359     Zr1967   2.439       .  S
O1359      H2010   0.990       .  S
O1359      H2014   0.990       .  S
Zr1360     O1958   2.454       .  S
Zr1360     O1361   2.436       .  S
Zr1360     O1972   2.434       .  S
Zr1360     O1974   2.372       .  S
Zr1360     O1363   2.383   1_556  S
Zr1360     O1388   2.372   1_656  S
Zr1360     O2000   2.365   1_655  S
O1361      H2012   0.990       .  S
O1361      H1405   0.990   1_556  S
O1362     Zr1970   2.434       .  S
O1362      H2005   0.990       .  S
O1363     Zr1383   2.406   1_655  S
O1364     Zr1967   2.370       .  S
O1364     Zr1970   2.374       .  S
O1364     Zr1384   2.393   1_655  S
O1364      H1391   0.964       .  S
O1365     Zr1377   2.445       .  S
O1365      C1367   1.288       .  A
O1366     Zr1384   2.428       .  S
O1366      C1367   1.287       .  A
C1367      C1464   1.493       .  S
O1368     Zr1990   2.456   1_554  S
O1368      C1370   1.291       .  A
O1369     Zr1383   2.457       .  S
O1369      C1370   1.293       .  A
C1370      C1496   1.497       .  S
O1371     Zr1380   2.449       .  S
O1371      C1373   1.289       .  A
O1372     Zr1384   2.437       .  S
O1372      C1373   1.288       .  A
C1373      C1483   1.482       .  S
O1374     Zr1987   2.410   1_554  S
O1374      C1376   1.279       .  A
O1375     Zr1383   2.488       .  S
O1375      C1376   1.299       .  A
C1376      C1451   1.505       .  S
Zr1377     O1984   2.419       .  S
Zr1377     O1378   2.435       .  S
Zr1377     O1989   2.430       .  S
Zr1377     O1385   2.359       .  S
Zr1377     O1996   2.381       .  S
Zr1377     O1999   2.372       .  S
Zr1377     O1387   2.356       .  S
O1378      H1398   0.990       .  S
O1378      H1403   0.990       .  S
O1379     Zr1987   2.432       .  S
O1379      H2009   0.990       .  S
Zr1380     O1978   2.472       .  S
Zr1380     O1381   2.435       .  S
Zr1380     O1992   2.437       .  S
Zr1380     O1996   2.377       .  S
Zr1380     O1385   2.379       .  S
Zr1380     O1390   2.379       .  S
Zr1380     O1998   2.361       .  S
O1381      H2007   0.990       .  S
O1382     Zr1990   2.436       .  S
O1382      H2006   0.990       .  S
O1382      H2016   0.990       .  S
Zr1383     O1386   2.396       .  S
Zr1383     O1388   2.397       .  S
Zr1383     O1389   2.399       .  S
Zr1384     O1385   2.394       .  S
Zr1384     O1387   2.373       .  S
Zr1384     O1390   2.387       .  S
O1385      H1393   0.966       .  S
O1386     Zr1987   2.377   1_554  S
O1386     Zr1990   2.377   1_554  S
O1387     Zr1967   2.367   1_455  S
O1388     Zr1990   2.363   1_554  S
O1388      H1392   0.965       .  S
O1389     Zr1987   2.370   1_554  S
O1389      H1394   0.964       .  S
O1390     Zr1970   2.366   1_455  S
H1395      O1972   0.990   1_554  S
H1396      O1992   0.990       .  S
H1397      O1991   0.990   1_556  S
H1399      O1989   0.990       .  S
H1400      O1969   0.990       .  S
H1402      O1971   0.990       .  S
H1404      O1969   0.990   1_554  S
H1406      O1992   0.990       .  S
C1407      H1408   1.112       .  S
C1407      C1413   1.541       .  S
C1407      C1412   1.529       .  S
C1407      C1411   1.540       .  S
C1409      H1410   1.105       .  S
C1409      C1415   1.559       .  S
C1409      C1414   1.538       .  S
C1409      C1416   1.559       .  S
C1411      C1414   1.375       .  D
C1411      C1816   1.481       .  S
C1412      C1415   1.375       .  D
C1412      C1499   1.507       .  S
C1413      C1416   1.390       .  D
C1413      C1611   1.501       .  S
C1414      C1800   1.491       .  S
C1415      C1480   1.506       .  S
C1416      C1624   1.526       .  S
C1417      H1418   1.096       .  S
C1417      C1423   1.561       .  S
C1417      C1422   1.547       .  S
C1417      C1421   1.535       .  S
C1419      H1420   1.112       .  S
C1419      C1425   1.549       .  S
C1419      C1424   1.530       .  S
C1419      C1426   1.552       .  S
C1421      C1424   1.363       .  D
C1421      C1784   1.464       .  S
C1422      C1425   1.378       .  D
C1422      C1592   1.519       .  S
C1423      C1426   1.400       .  D
C1423      C1512   1.548       .  S
C1424      C1768   1.491       .  S
C1425      C1576   1.500       .  S
C1426      C1531   1.499       .  S
C1427      H1428   1.104       .  S
C1427      C1433   1.572       .  S
C1427      C1432   1.547       .  S
C1427      C1431   1.544       .  S
C1429      H1430   1.112       .  S
C1429      C1435   1.554       .  S
C1429      C1434   1.533       .  S
C1429      C1436   1.547       .  S
C1431      C1434   1.368       .  D
C1431      C1723   1.498       .  S
C1432      C1435   1.376       .  D
C1432      C1688   1.512       .  S
C1433      C1436   1.392       .  D
C1433      C1448   1.530       .  S
C1434      C1707   1.463       .  S
C1435      C1672   1.518       .  S
C1436      C1467   1.511       .  S
C1437      H1438   1.104       .  S
C1437      C1443   1.562       .  S
C1437      C1442   1.545       .  S
C1437      C1441   1.547       .  S
C1439      H1440   1.111       .  S
C1439      C1445   1.554       .  S
C1439      C1444   1.538       .  S
C1439      C1446   1.542       .  S
C1441      C1444   1.375       .  D
C1441      C1739   1.496       .  S
C1442      C1445   1.377       .  D
C1442      C1659   1.498       .  S
C1443      C1446   1.390       .  D
C1443      C1544   1.534       .  S
C1444      C1752   1.488       .  S
C1445      C1640   1.516       .  S
C1446      C1563   1.503       .  S
C1447      C1448   1.398       .  A
C1447      C1452   1.400       .  A
C1447      H1454   1.082       .  S
C1448      C1449   1.422       .  A
C1449      C1450   1.414       .  A
C1449      C1456   1.505       .  S
C1450      C1451   1.409       .  A
C1450      H1455   1.084       .  S
C1451      C1452   1.432       .  A
C1452      C1453   1.510       .  S
C1453      H1457   1.111       .  S
C1453      H1458   1.106       .  S
C1453      H1459   1.109       .  S
C1456      H1460   1.109       .  S
C1456      H1461   1.109       .  S
C1456      H1462   1.111       .  S
C1463      C1464   1.408       .  A
C1463      C1468   1.406       .  A
C1463      H1470   1.084       .  S
C1464      C1465   1.415       .  A
C1465      C1466   1.406       .  A
C1465      C1472   1.509       .  S
C1466      C1467   1.407       .  A
C1466      H1471   1.072       .  S
C1467      C1468   1.414       .  A
C1468      C1469   1.500       .  S
C1469      H1473   1.110       .  S
C1469      H1474   1.104       .  S
C1469      H1475   1.110       .  S
C1472      H1476   1.109       .  S
C1472      H1477   1.110       .  S
C1472      H1478   1.111       .  S
C1479      C1480   1.406       .  A
C1479      C1484   1.397       .  A
C1479      H1486   1.076       .  S
C1480      C1481   1.420       .  A
C1481      C1482   1.413       .  A
C1481      C1488   1.505       .  S
C1482      C1483   1.407       .  A
C1482      H1487   1.084       .  S
C1483      C1484   1.410       .  A
C1484      C1485   1.510       .  S
C1485      H1489   1.111       .  S
C1485      H1490   1.108       .  S
C1485      H1491   1.111       .  S
C1488      H1492   1.108       .  S
C1488      H1493   1.111       .  S
C1488      H1494   1.110       .  S
C1495      C1496   1.403       .  A
C1495      C1500   1.412       .  A
C1495      H1502   1.085       .  S
C1496      C1497   1.418       .  A
C1497      C1498   1.408       .  A
C1497      C1504   1.507       .  S
C1498      C1499   1.403       .  A
C1498      H1503   1.084       .  S
C1499      C1500   1.425       .  A
C1500      C1501   1.505       .  S
C1501      H1505   1.111       .  S
C1501      H1506   1.102       .  S
C1501      H1507   1.110       .  S
C1504      H1508   1.107       .  S
C1504      H1509   1.111       .  S
C1504      H1510   1.111       .  S
C1511      C1512   1.417       .  A
C1511      C1516   1.420       .  A
C1511      H1518   1.075       .  S
C1512      C1513   1.420       .  A
C1513      C1514   1.400       .  A
C1513      C1520   1.503       .  S
C1514      C1515   1.409       .  A
C1514      H1519   1.084       .  S
C1515      C1516   1.419       .  A
C1516      C1517   1.506       .  S
C1517      H1521   1.111       .  S
C1517      H1522   1.110       .  S
C1517      H1523   1.111       .  S
C1520      H1524   1.111       .  S
C1520      H1525   1.100       .  S
C1520      H1526   1.111       .  S
C1527      C1528   1.408       .  A
C1527      C1532   1.408       .  A
C1527      H1534   1.084       .  S
C1528      C1529   1.416       .  A
C1529      C1530   1.403       .  A
C1529      C1536   1.509       .  S
C1530      C1531   1.407       .  A
C1530      H1535   1.078       .  S
C1531      C1532   1.414       .  A
C1532      C1533   1.507       .  S
C1533      H1537   1.110       .  S
C1533      H1538   1.109       .  S
C1533      H1539   1.110       .  S
C1536      H1540   1.110       .  S
C1536      H1541   1.110       .  S
C1536      H1542   1.111       .  S
C1543      C1544   1.411       .  A
C1543      C1548   1.411       .  A
C1543      H1550   1.070       .  S
C1544      C1545   1.417       .  A
C1545      C1546   1.405       .  A
C1545      C1552   1.506       .  S
C1546      C1547   1.411       .  A
C1546      H1551   1.083       .  S
C1547      C1548   1.419       .  A
C1548      C1549   1.507       .  S
C1549      H1553   1.111       .  S
C1549      H1554   1.109       .  S
C1549      H1555   1.108   1_655  S
C1552      H1556   1.110       .  S
C1552      H1557   1.109       .  S
C1552      H1558   1.111       .  S
C1559      C1560   1.391       .  A
C1559      C1564   1.395       .  A
C1559      H1566   1.086       .  S
C1560      C1561   1.417       .  A
C1561      C1562   1.412       .  A
C1561      C1568   1.505       .  S
C1562      C1563   1.404       .  A
C1562      H1567   1.083       .  S
C1563      C1564   1.427       .  A
C1564      C1565   1.496       .  S
C1565      H1569   1.110       .  S
C1565      H1570   1.106       .  S
C1565      H1571   1.093       .  S
C1568      H1572   1.107       .  S
C1568      H1573   1.111       .  S
C1568      H1574   1.111       .  S
C1575      C1576   1.406       .  A
C1575      C1580   1.398       .  A
C1575      H1582   1.075       .  S
C1576      C1577   1.416       .  A
C1577      C1578   1.410       .  A
C1577      C1584   1.504       .  S
C1578      C1579   1.405       .  A
C1578      H1583   1.084       .  S
C1579      C1580   1.409       .  A
C1580      C1581   1.510       .  S
C1581      H1585   1.111       .  S
C1581      H1586   1.109       .  S
C1581      H1587   1.110       .  S
C1584      H1588   1.105       .  S
C1584      H1589   1.110       .  S
C1584      H1590   1.111       .  S
C1591      C1592   1.410       .  A
C1591      C1596   1.417       .  A
C1591      H1598   1.080       .  S
C1592      C1593   1.418       .  A
C1593      C1594   1.413       .  A
C1593      C1600   1.504       .  S
C1594      C1595   1.406       .  A
C1594      H1599   1.084       .  S
C1595      C1596   1.416       .  A
C1596      C1597   1.504       .  S
C1597      H1601   1.111       .  S
C1597      H1602   1.110       .  S
C1597      H1603   1.109       .  S
C1600      H1604   1.110       .  S
C1600      H1605   1.108       .  S
C1600      H1606   1.110       .  S
C1607      C1608   1.404       .  A
C1607      C1612   1.410       .  A
C1607      H1614   1.071       .  S
C1608      C1609   1.404       .  A
C1609      C1610   1.392       .  A
C1609      C1616   1.510       .  S
C1610      C1611   1.414       .  A
C1610      H1615   1.077       .  S
C1611      C1612   1.412       .  A
C1612      C1613   1.506       .  S
C1613      H1617   1.111       .  S
C1613      H1618   1.110       .  S
C1613      H1619   1.104       .  S
C1616      H1620   1.109       .  S
C1616      H1621   1.108       .  S
C1616      H1622   1.111       .  S
C1623      C1624   1.407       .  A
C1623      C1628   1.414       .  A
C1623      H1630   1.084       .  S
C1624      C1625   1.434       .  A
C1625      C1626   1.409       .  A
C1625      C1632   1.499       .  S
C1626      C1627   1.399       .  A
C1626      H1631   1.085       .  S
C1627      C1628   1.423       .  A
C1628      C1629   1.507       .  S
C1629      H1633   1.111       .  S
C1629      H1634   1.108       .  S
C1629      H1635   1.111       .  S
C1632      H1636   1.091       .  S
C1632      H1637   1.109       .  S
C1632      H1638   1.111       .  S
C1639      C1640   1.413       .  A
C1639      C1644   1.417       .  A
C1639      H1646   1.082       .  S
C1640      C1641   1.413       .  A
C1641      C1642   1.412       .  A
C1641      C1648   1.505       .  S
C1642      C1643   1.409       .  A
C1642      H1647   1.084       .  S
C1643      C1644   1.419       .  A
C1644      C1645   1.507       .  S
C1645      H1649   1.111       .  S
C1645      H1650   1.111       .  S
C1645      H1651   1.110       .  S
C1648      H1652   1.106       .  S
C1648      H1653   1.110       .  S
C1648      H1654   1.110       .  S
C1655      C1656   1.410       .  A
C1655      C1660   1.417       .  A
C1655      H1662   1.083       .  S
C1656      C1657   1.406       .  A
C1657      C1658   1.389       .  A
C1657      C1664   1.509       .  S
C1658      C1659   1.398       .  A
C1658      H1663   1.065       .  S
C1659      C1660   1.413       .  A
C1660      C1661   1.503       .  S
C1661      H1665   1.111       .  S
C1661      H1666   1.109       .  S
C1661      H1667   1.110       .  S
C1664      H1668   1.106       .  S
C1664      H1669   1.110       .  S
C1664      H1670   1.110       .  S
C1671      C1672   1.411       .  A
C1671      C1676   1.416       .  A
C1671      H1678   1.082       .  S
C1672      C1673   1.417       .  A
C1673      C1674   1.411       .  A
C1673      C1680   1.500       .  S
C1674      C1675   1.404       .  A
C1674      H1679   1.085       .  S
C1675      C1676   1.415       .  A
C1676      C1677   1.503       .  S
C1677      H1681   1.111       .  S
C1677      H1682   1.109       .  S
C1677      H1683   1.110       .  S
C1680      H1684   1.109       .  S
C1680      H1685   1.106       .  S
C1680      H1686   1.110       .  S
C1687      C1688   1.404       .  A
C1687      C1692   1.412       .  A
C1687      H1694   1.084       .  S
C1688      C1689   1.424       .  A
C1689      C1690   1.401       .  A
C1689      C1696   1.487       .  S
C1690      C1691   1.390       .  A
C1690      H1695   1.085       .  S
C1691      C1692   1.412       .  A
C1692      C1693   1.495       .  S
C1693      H1697   1.111       .  S
C1693      H1698   1.111       .  S
C1693      H1699   1.110       .  S
C1696      H1700   1.103       .  S
C1696      H1701   1.106       .  S
C1696      H1702   1.111       .  S
C1703      C1704   1.394       .  A
C1703      C1708   1.392       .  A
C1703      H1710   1.081       .  S
C1704      C1705   1.401       .  A
C1705      C1706   1.383       .  A
C1705      C1712   1.510       .  S
C1706      C1707   1.400       .  A
C1706      H1711   1.076       .  S
C1707      C1708   1.416       .  A
C1708      C1709   1.503       .  S
C1709      H1713   1.109       .  S
C1709      H1714   1.111       .  S
C1709      H1715   1.098       .  S
C1712      H1716   1.109       .  S
C1712      H1717   1.110       .  S
C1712      H1718   1.111       .  S
C1719      C1720   1.395       .  A
C1719      C1724   1.392       .  A
C1719      H1726   1.085       .  S
C1720      C1721   1.419       .  A
C1721      C1722   1.408       .  A
C1721      C1728   1.508       .  S
C1722      C1723   1.407       .  A
C1722      H1727   1.083       .  S
C1723      C1724   1.414       .  A
C1724      C1725   1.495       .  S
C1725      H1729   1.110       .  S
C1725      H1730   1.106       .  S
C1725      H1731   1.096       .  S
C1728      H1732   1.111       .  S
C1728      H1733   1.109       .  S
C1728      H1734   1.111       .  S
C1735      C1736   1.397       .  A
C1735      C1740   1.391       .  A
C1735      H1742   1.086       .  S
C1736      C1737   1.409       .  A
C1737      C1738   1.402       .  A
C1737      C1744   1.507       .  S
C1738      C1739   1.412       .  A
C1738      H1743   1.082       .  S
C1739      C1740   1.417       .  A
C1740      C1741   1.504       .  S
C1741      H1745   1.095       .  S
C1741      H1746   1.110       .  S
C1741      H1747   1.111       .  S
C1744      H1748   1.109       .  S
C1744      H1749   1.110       .  S
C1744      H1750   1.111       .  S
C1751      C1752   1.406       .  A
C1751      C1756   1.388       .  A
C1751      H1758   1.072       .  S
C1752      C1753   1.422       .  A
C1753      C1754   1.395       .  A
C1753      C1760   1.504       .  S
C1754      C1755   1.400       .  A
C1754      H1759   1.086       .  S
C1755      C1756   1.403       .  A
C1756      C1757   1.511       .  S
C1757      H1761   1.111       .  S
C1757      H1762   1.110       .  S
C1757      H1763   1.109       .  S
C1760      H1764   1.111       .  S
C1760      H1765   1.095       .  S
C1760      H1766   1.110       .  S
C1767      C1768   1.402       .  A
C1767      C1772   1.399       .  A
C1767      H1774   1.080       .  S
C1768      C1769   1.419       .  A
C1769      C1770   1.400       .  A
C1769      C1776   1.505       .  S
C1770      C1771   1.401       .  A
C1770      H1775   1.085       .  S
C1771      C1772   1.416       .  A
C1772      C1773   1.511       .  S
C1773      H1777   1.111       .  S
C1773      H1778   1.109       .  S
C1773      H1779   1.111       .  S
C1776      H1780   1.101       .  S
C1776      H1781   1.110       .  S
C1776      H1782   1.111       .  S
C1783      C1784   1.399       .  A
C1783      C1788   1.384       .  A
C1783      H1790   1.079       .  S
C1784      C1785   1.417       .  A
C1785      C1786   1.393       .  A
C1785      C1792   1.503       .  S
C1786      C1787   1.395       .  A
C1786      H1791   1.086       .  S
C1787      C1788   1.402       .  A
C1788      C1789   1.510       .  S
C1789      H1793   1.111       .  S
C1789      H1794   1.109       .  S
C1789      H1795   1.110       .  S
C1792      H1796   1.111       .  S
C1792      H1797   1.095       .  S
C1792      H1798   1.111       .  S
C1799      C1800   1.406       .  A
C1799      C1804   1.397       .  A
C1799      H1806   1.082       .  S
C1800      C1801   1.420       .  A
C1801      C1802   1.392       .  A
C1801      C1808   1.502       .  S
C1802      C1803   1.395       .  A
C1802      H1807   1.085       .  S
C1803      C1804   1.411       .  A
C1804      C1805   1.504       .  S
C1805      H1809   1.111       .  S
C1805      H1810   1.110       .  S
C1805      H1811   1.103       .  S
C1808      H1812   1.098       .  S
C1808      H1813   1.101       .  S
C1808      H1814   1.111       .  S
C1815      C1816   1.401       .  A
C1815      C1820   1.389       .  A
C1815      H1822   1.080       .  S
C1816      C1817   1.423       .  A
C1817      C1818   1.397       .  A
C1817      C1824   1.502       .  S
C1818      C1819   1.393       .  A
C1818      H1823   1.085       .  S
C1819      C1820   1.406       .  A
C1820      C1821   1.509       .  S
C1821      H1825   1.111       .  S
C1821      H1826   1.108       .  S
C1821      H1827   1.110       .  S
C1824      H1828   1.111       .  S
C1824      H1829   1.094       .  S
C1824      H1830   1.110       .  S
O1831     Zr1843   2.422       .  S
O1831      C1833   1.283       .  A
O1832     Zr1869   2.385       .  S
O1832      C1833   1.277       .  A
C1833      C2429   1.441       .  S
O1834      C1836   1.283       .  A
O1835     Zr1870   2.450       .  S
O1835      C1836   1.290       .  A
C1836      C2381   1.485       .  S
O1837     Zr1846   2.418       .  S
O1837      C1839   1.282       .  A
O1838     Zr1869   2.375       .  S
O1838      C1839   1.275       .  A
C1839      C2397   1.438       .  S
O1840      C1842   1.285       .  A
O1841     Zr1870   2.385       .  S
O1841      C1842   1.278       .  A
C1842      C2413   1.462       .  S
Zr1843     O1844   2.436       .  S
Zr1843     O1849   2.365       .  S
Zr1843     O1875   2.367       .  S
O1844      H1887   0.990       .  S
Zr1846     O1847   2.436       .  S
Zr1846     O1849   2.367       .  S
Zr1846     O1874   2.360       .  S
O1847      H1891   0.990       .  S
O1849     Zr1869   2.375       .  S
O1850     Zr1870   2.375       .  S
O1850      H1877   0.968       .  S
O1851     Zr1863   2.394   1_556  S
O1851      C1853   1.279       .  A
O1852     Zr1870   2.407       .  S
O1852      C1853   1.283       .  A
C1853      C2314   1.437       .  S
O1854      C1856   1.282       .  A
O1855     Zr1869   2.378       .  S
O1855      C1856   1.278       .  A
C1856      C2365   1.453       .  S
O1857     Zr1866   2.425   1_556  S
O1857      C1859   1.284       .  A
O1858     Zr1870   2.398       .  S
O1858      C1859   1.280       .  A
C1859      C2346   1.457       .  S
O1860      C1862   1.290       .  A
O1861     Zr1869   2.393       .  S
O1861      C1862   1.277       .  A
C1862      C2330   1.478       .  S
Zr1863     O1865   2.437       .  S
Zr1863     O1871   2.386   1_554  S
Zr1863     O1873   2.384   1_554  S
O1865      H1885   0.990       .  S
Zr1866     O1867   2.437   1_554  S
Zr1866     O1871   2.356   1_554  S
Zr1866     O1876   2.374   1_554  S
Zr1869     O1872   2.368       .  S
Zr1869     O1874   2.379       .  S
Zr1869     O1875   2.370       .  S
Zr1870     O1871   2.392       .  S
Zr1870     O1873   2.385       .  S
Zr1870     O1876   2.371       .  S
O1871      H1879   0.969       .  S
O1874      H1878   0.967       .  S
O1875      H1880   0.966       .  S
O1893     Zr1905   2.456       .  S
O1893      C1895   1.291       .  A
O1894     Zr1931   2.425       .  S
O1894      C1895   1.286       .  A
C1895      C2301   1.480       .  S
O1896      C1898   1.290       .  A
O1897     Zr1932   2.423       .  S
O1897      C1898   1.286       .  A
C1898      C2266   1.471       .  S
O1899     Zr1908   2.462       .  S
O1899      C1901   1.292       .  A
O1900     Zr1931   2.476       .  S
O1900      C1901   1.296       .  A
C1901      C2253   1.513       .  S
O1902      C1904   1.292       .  A
O1903     Zr1932   2.462       .  S
O1903      C1904   1.293       .  A
C1904      C2285   1.504       .  S
Zr1905     O1906   2.435       .  S
Zr1905     O1911   2.384       .  S
Zr1905     O1937   2.368       .  S
O1906      H1949   0.989       .  S
Zr1908     O1909   2.435       .  S
Zr1908     O1911   2.379       .  S
Zr1908     O1936   2.368       .  S
O1909      H1953   0.990       .  S
O1911     Zr1931   2.400       .  S
O1912     Zr1932   2.397       .  S
O1912      H1939   0.965       .  S
O1913     Zr1925   2.442       .  S
O1913      C1915   1.286       .  A
O1914      C1915   1.294       .  A
C1915      C2237   1.505       .  S
O1916      C1918   1.295       .  A
O1917      C1918   1.292       .  A
C1918      C2205   1.503       .  S
O1919     Zr1928   2.449       .  S
O1919      C1921   1.290       .  A
O1920      C1921   1.289       .  A
C1921      C2189   1.482       .  S
O1922      C1924   1.282       .  A
O1923      C1924   1.292       .  A
C1924      C2218   1.468       .  S
Zr1925     O1933   2.369       .  S
Zr1928     O1929   2.436       .  S
Zr1928     O1933   2.392       .  S
Zr1931     O1936   2.383       .  S
Zr1931     O1937   2.398       .  S
Zr1932     O1935   2.375       .  S
Zr1932     O1938   2.395       .  S
O1933      H1941   0.966       .  S
O1936      H1940   0.965       .  S
O1937      H1942   0.965       .  S
O1955     Zr1967   2.454       .  S
O1955      C1957   1.288       .  A
O1956     Zr1993   2.428   1_655  S
O1956      C1957   1.289       .  A
C1957      C2170   1.479       .  S
O1958      C1960   1.290       .  A
O1959     Zr1994   2.430   1_655  S
O1959      C1960   1.288       .  A
C1960      C2138   1.489       .  S
O1961     Zr1970   2.432       .  S
O1961      C1963   1.288       .  A
O1962     Zr1993   2.484   1_655  S
O1962      C1963   1.298       .  A
C1963      C2125   1.516       .  S
O1964      C1966   1.287       .  A
O1965     Zr1994   2.450   1_655  S
O1965      C1966   1.291       .  A
C1966      C2157   1.504       .  S
Zr1967     O1968   2.435       .  S
Zr1967     O1973   2.374       .  S
Zr1967     O1999   2.367   1_655  S
O1968      H2011   0.990       .  S
Zr1970     O1971   2.436       .  S
Zr1970     O1973   2.382       .  S
Zr1970     O1998   2.374   1_655  S
O1971      H2015   0.990       .  S
O1973     Zr1993   2.407   1_655  S
O1974     Zr1994   2.395   1_655  S
O1974      H2001   0.965       .  S
O1975     Zr1987   2.435       .  S
O1975      C1977   1.286       .  A
O1976     Zr1994   2.429       .  S
O1976      C1977   1.287       .  A
C1977      C2074   1.489       .  S
O1978      C1980   1.294       .  A
O1979     Zr1993   2.461       .  S
O1979      C1980   1.294       .  A
C1980      C2106   1.504       .  S
O1981     Zr1990   2.447       .  S
O1981      C1983   1.289       .  A
O1982     Zr1994   2.441       .  S
O1982      C1983   1.289       .  A
C1983      C2093   1.481       .  S
O1984      C1986   1.281       .  A
O1985     Zr1993   2.489       .  S
O1985      C1986   1.299       .  A
C1986      C2061   1.509       .  S
Zr1987     O1988   2.435       .  S
Zr1987     O1995   2.359       .  S
Zr1987     O1997   2.355       .  S
O1988      H2008   0.990       .  S
O1988      H2013   0.990   1_556  S
Zr1990     O1991   2.434   1_556  S
Zr1990     O1995   2.377       .  S
Zr1990     O2000   2.373       .  S
Zr1993     O1996   2.399       .  S
Zr1993     O1998   2.396       .  S
Zr1993     O1999   2.404       .  S
Zr1994     O1995   2.390       .  S
Zr1994     O1997   2.373       .  S
Zr1994     O2000   2.385       .  S
O1995      H2003   0.966       .  S
O1998      H2002   0.965       .  S
O1999      H2004   0.963       .  S
C2017      H2018   1.112       .  S
C2017      C2023   1.539       .  S
C2017      C2022   1.533       .  S
C2017      C2021   1.540       .  S
C2019      H2020   1.106       .  S
C2019      C2025   1.557       .  S
C2019      C2024   1.536       .  S
C2019      C2026   1.558       .  S
C2021      C2024   1.373       .  D
C2021      C2426   1.478       .  S
C2022      C2025   1.376       .  D
C2022      C2109   1.514       .  S
C2023      C2026   1.390       .  D
C2023      C2221   1.499       .  S
C2024      C2410   1.488       .  S
C2025      C2090   1.502       .  S
C2026      C2234   1.522       .  S
C2027      H2028   1.100       .  S
C2027      C2033   1.564       .  S
C2027      C2032   1.551       .  S
C2027      C2031   1.535       .  S
C2029      H2030   1.112       .  S
C2029      C2035   1.551       .  S
C2029      C2034   1.535       .  S
C2029      C2036   1.553       .  S
C2031      C2034   1.367       .  D
C2031      C2394   1.463       .  S
C2032      C2035   1.379       .  D
C2032      C2202   1.521       .  S
C2033      C2036   1.401       .  D
C2033      C2122   1.553       .  S
C2034      C2378   1.501       .  S
C2035      C2186   1.504       .  S
C2036      C2141   1.498       .  S
C2037      H2038   1.103       .  S
C2037      C2043   1.571       .  S
C2037      C2042   1.548       .  S
C2037      C2041   1.546       .  S
C2039      H2040   1.112       .  S
C2039      C2045   1.552       .  S
C2039      C2044   1.534       .  S
C2039      C2046   1.547       .  S
C2041      C2044   1.368       .  D
C2041      C2333   1.499       .  S
C2042      C2045   1.376       .  D
C2042      C2298   1.512       .  S
C2043      C2046   1.391       .  D
C2043      C2058   1.531       .  S
C2044      C2317   1.467       .  S
C2045      C2282   1.518       .  S
C2046      C2077   1.506       .  S
C2047      H2048   1.104       .  S
C2047      C2053   1.561       .  S
C2047      C2052   1.546       .  S
C2047      C2051   1.544       .  S
C2049      H2050   1.111       .  S
C2049      C2055   1.555       .  S
C2049      C2054   1.538       .  S
C2049      C2056   1.542       .  S
C2051      C2054   1.371       .  D
C2051      C2349   1.493       .  S
C2052      C2055   1.379       .  D
C2052      C2269   1.499       .  S
C2053      C2056   1.390       .  D
C2053      C2154   1.532       .  S
C2054      C2362   1.485       .  S
C2055      C2250   1.518       .  S
C2056      C2173   1.503       .  S
C2057      C2058   1.398       .  A
C2057      C2062   1.401       .  A
C2057      H2064   1.082       .  S
C2058      C2059   1.422       .  A
C2059      C2060   1.415       .  A
C2059      C2066   1.505       .  S
C2060      C2061   1.409       .  A
C2060      H2065   1.084       .  S
C2061      C2062   1.432       .  A
C2062      C2063   1.508       .  S
C2063      H2067   1.111       .  S
C2063      H2068   1.107       .  S
C2063      H2069   1.109       .  S
C2066      H2070   1.109       .  S
C2066      H2071   1.109       .  S
C2066      H2072   1.111       .  S
C2073      C2074   1.408       .  A
C2073      C2078   1.405       .  A
C2073      H2080   1.084       .  S
C2074      C2075   1.413       .  A
C2075      C2076   1.404       .  A
C2075      C2082   1.509       .  S
C2076      C2077   1.407       .  A
C2076      H2081   1.072       .  S
C2077      C2078   1.413       .  A
C2078      C2079   1.501       .  S
C2079      H2083   1.111       .  S
C2079      H2084   1.105       .  S
C2079      H2085   1.110       .  S
C2082      H2086   1.109       .  S
C2082      H2087   1.110       .  S
C2082      H2088   1.111       .  S
C2089      C2090   1.406       .  A
C2089      C2094   1.398       .  A
C2089      H2096   1.075       .  S
C2090      C2091   1.417       .  A
C2091      C2092   1.413       .  A
C2091      C2098   1.505       .  S
C2092      C2093   1.407       .  A
C2092      H2097   1.084       .  S
C2093      C2094   1.409       .  A
C2094      C2095   1.509       .  S
C2095      H2099   1.112       .  S
C2095      H2100   1.107       .  S
C2095      H2101   1.111       .  S
C2098      H2102   1.108       .  S
C2098      H2103   1.110       .  S
C2098      H2104   1.111       .  S
C2105      C2106   1.404       .  A
C2105      C2110   1.414       .  A
C2105      H2112   1.084       .  S
C2106      C2107   1.419       .  A
C2107      C2108   1.413       .  A
C2107      C2114   1.506       .  S
C2108      C2109   1.405       .  A
C2108      H2113   1.084       .  S
C2109      C2110   1.426       .  A
C2110      C2111   1.505       .  S
C2111      H2115   1.111       .  S
C2111      H2116   1.101       .  S
C2111      H2117   1.110       .  S
C2114      H2118   1.107       .  S
C2114      H2119   1.111       .  S
C2114      H2120   1.111       .  S
C2121      C2122   1.418       .  A
C2121      C2126   1.421       .  A
C2121      H2128   1.072       .  S
C2122      C2123   1.420       .  A
C2123      C2124   1.402       .  A
C2123      C2130   1.501       .  S
C2124      C2125   1.410       .  A
C2124      H2129   1.084       .  S
C2125      C2126   1.419       .  A
C2126      C2127   1.507       .  S
C2127      H2131   1.111       .  S
C2127      H2132   1.110       .  S
C2127      H2133   1.111       .  S
C2130      H2134   1.111       .  S
C2130      H2135   1.098       .  S
C2130      H2136   1.111       .  S
C2137      C2138   1.410       .  A
C2137      C2142   1.410       .  A
C2137      H2144   1.084       .  S
C2138      C2139   1.413       .  A
C2139      C2140   1.400       .  A
C2139      C2146   1.509       .  S
C2140      C2141   1.404       .  A
C2140      H2145   1.073       .  S
C2141      C2142   1.413       .  A
C2142      C2143   1.506       .  S
C2143      H2147   1.110       .  S
C2143      H2148   1.109       .  S
C2143      H2149   1.110       .  S
C2146      H2150   1.110       .  S
C2146      H2151   1.110       .  S
C2146      H2152   1.111       .  S
C2153      C2154   1.411       .  A
C2153      C2158   1.411       .  A
C2153      H2160   1.070       .  S
C2154      C2155   1.416       .  A
C2155      C2156   1.403       .  A
C2155      C2162   1.507       .  S
C2156      C2157   1.412       .  A
C2156      H2161   1.083       .  S
C2157      C2158   1.418       .  A
C2158      C2159   1.508       .  S
C2159      H2163   1.111       .  S
C2159      H2164   1.110       .  S
C2159      H2165   1.109   1_655  S
C2162      H2166   1.111       .  S
C2162      H2167   1.109       .  S
C2162      H2168   1.110       .  S
C2169      C2170   1.391       .  A
C2169      C2174   1.395       .  A
C2169      H2176   1.086       .  S
C2170      C2171   1.417       .  A
C2171      C2172   1.411       .  A
C2171      C2178   1.505       .  S
C2172      C2173   1.403       .  A
C2172      H2177   1.083       .  S
C2173      C2174   1.427       .  A
C2174      C2175   1.495       .  S
C2175      H2179   1.110       .  S
C2175      H2180   1.107       .  S
C2175      H2181   1.091       .  S
C2178      H2182   1.107       .  S
C2178      H2183   1.111       .  S
C2178      H2184   1.111       .  S
C2185      C2186   1.407       .  A
C2185      C2190   1.400       .  A
C2185      H2192   1.076       .  S
C2186      C2187   1.417       .  A
C2187      C2188   1.411       .  A
C2187      C2194   1.504       .  S
C2188      C2189   1.406       .  A
C2188      H2193   1.083       .  S
C2189      C2190   1.409       .  A
C2190      C2191   1.509       .  S
C2191      H2195   1.111       .  S
C2191      H2196   1.109       .  S
C2191      H2197   1.110       .  S
C2194      H2198   1.106       .  S
C2194      H2199   1.110       .  S
C2194      H2200   1.110       .  S
C2201      C2202   1.410       .  A
C2201      C2206   1.416       .  A
C2201      H2208   1.079       .  S
C2202      C2203   1.419       .  A
C2203      C2204   1.413       .  A
C2203      C2210   1.503       .  S
C2204      C2205   1.405       .  A
C2204      H2209   1.085       .  S
C2205      C2206   1.415       .  A
C2206      C2207   1.504       .  S
C2207      H2211   1.111       .  S
C2207      H2212   1.110       .  S
C2207      H2213   1.108       .  S
C2210      H2214   1.110       .  S
C2210      H2215   1.108       .  S
C2210      H2216   1.110       .  S
C2217      C2218   1.405       .  A
C2217      C2222   1.411       .  A
C2217      H2224   1.073       .  S
C2218      C2219   1.402       .  A
C2219      C2220   1.391       .  A
C2219      C2226   1.510       .  S
C2220      C2221   1.413       .  A
C2220      H2225   1.076       .  S
C2221      C2222   1.411       .  A
C2222      C2223   1.505       .  S
C2223      H2227   1.111       .  S
C2223      H2228   1.110       .  S
C2223      H2229   1.106       .  S
C2226      H2230   1.109       .  S
C2226      H2231   1.107       .  S
C2226      H2232   1.111       .  S
C2233      C2234   1.407       .  A
C2233      C2238   1.413       .  A
C2233      H2240   1.084       .  S
C2234      C2235   1.432       .  A
C2235      C2236   1.407       .  A
C2235      C2242   1.499       .  S
C2236      C2237   1.398       .  A
C2236      H2241   1.085       .  S
C2237      C2238   1.422       .  A
C2238      C2239   1.507       .  S
C2239      H2243   1.111       .  S
C2239      H2244   1.108       .  S
C2239      H2245   1.111       .  S
C2242      H2246   1.091       .  S
C2242      H2247   1.109       .  S
C2242      H2248   1.112       .  S
C2249      C2250   1.412       .  A
C2249      C2254   1.417       .  A
C2249      H2256   1.081       .  S
C2250      C2251   1.414       .  A
C2251      C2252   1.414       .  A
C2251      C2258   1.506       .  S
C2252      C2253   1.411       .  A
C2252      H2257   1.084       .  S
C2253      C2254   1.419       .  A
C2254      C2255   1.506       .  S
C2255      H2259   1.111       .  S
C2255      H2260   1.110       .  S
C2255      H2261   1.110       .  S
C2258      H2262   1.106       .  S
C2258      H2263   1.110       .  S
C2258      H2264   1.111       .  S
C2265      C2266   1.411       .  A
C2265      C2270   1.418       .  A
C2265      H2272   1.083       .  S
C2266      C2267   1.404       .  A
C2267      C2268   1.387       .  A
C2267      C2274   1.510       .  S
C2268      C2269   1.397       .  A
C2268      H2273   1.060       .  S
C2269      C2270   1.413       .  A
C2270      C2271   1.503       .  S
C2271      H2275   1.111       .  S
C2271      H2276   1.109       .  S
C2271      H2277   1.110       .  S
C2274      H2278   1.106       .  S
C2274      H2279   1.111       .  S
C2274      H2280   1.110       .  S
C2281      C2282   1.411       .  A
C2281      C2286   1.417       .  A
C2281      H2288   1.083       .  S
C2282      C2283   1.417       .  A
C2283      C2284   1.412       .  A
C2283      C2290   1.501       .  S
C2284      C2285   1.405       .  A
C2284      H2289   1.085       .  S
C2285      C2286   1.417       .  A
C2286      C2287   1.504       .  S
C2287      H2291   1.111       .  S
C2287      H2292   1.110       .  S
C2287      H2293   1.110       .  S
C2290      H2294   1.109       .  S
C2290      H2295   1.106       .  S
C2290      H2296   1.110       .  S
C2297      C2298   1.406       .  A
C2297      C2302   1.412       .  A
C2297      H2304   1.084       .  S
C2298      C2299   1.425       .  A
C2299      C2300   1.398       .  A
C2299      C2306   1.489       .  S
C2300      C2301   1.388       .  A
C2300      H2305   1.085       .  S
C2301      C2302   1.413       .  A
C2302      C2303   1.496       .  S
C2303      H2307   1.111       .  S
C2303      H2308   1.109       .  S
C2303      H2309   1.110       .  S
C2306      H2310   1.102       .  S
C2306      H2311   1.105       .  S
C2306      H2312   1.111       .  S
C2313      C2314   1.392       .  A
C2313      C2318   1.391       .  A
C2313      H2320   1.080       .  S
C2314      C2315   1.402       .  A
C2315      C2316   1.385       .  A
C2315      C2322   1.510       .  S
C2316      C2317   1.401       .  A
C2316      H2321   1.078       .  S
C2317      C2318   1.418       .  A
C2318      C2319   1.503       .  S
C2319      H2323   1.108       .  S
C2319      H2324   1.111       .  S
C2319      H2325   1.096       .  S
C2322      H2326   1.109       .  S
C2322      H2327   1.109       .  S
C2322      H2328   1.111       .  S
C2329      C2330   1.397       .  A
C2329      C2334   1.392       .  A
C2329      H2336   1.085       .  S
C2330      C2331   1.418       .  A
C2331      C2332   1.405       .  A
C2331      C2338   1.508       .  S
C2332      C2333   1.408       .  A
C2332      H2337   1.082       .  S
C2333      C2334   1.414       .  A
C2334      C2335   1.496       .  S
C2335      H2339   1.111       .  S
C2335      H2340   1.107       .  S
C2335      H2341   1.096       .  S
C2338      H2342   1.110       .  S
C2338      H2343   1.111       .  S
C2338      H2344   1.111       .  S
C2345      C2346   1.396       .  A
C2345      C2350   1.390       .  A
C2345      H2352   1.086       .  S
C2346      C2347   1.406       .  A
C2347      C2348   1.400       .  A
C2347      C2354   1.507       .  S
C2348      C2349   1.413       .  A
C2348      H2353   1.083       .  S
C2349      C2350   1.417       .  A
C2350      C2351   1.504       .  S
C2351      H2355   1.093       .  S
C2351      H2356   1.110       .  S
C2351      H2357   1.111       .  S
C2354      H2358   1.110       .  S
C2354      H2359   1.110       .  S
C2354      H2360   1.111       .  S
C2361      C2362   1.406       .  A
C2361      C2366   1.388       .  A
C2361      H2368   1.073       .  S
C2362      C2363   1.423       .  A
C2363      C2364   1.393       .  A
C2363      C2370   1.505       .  S
C2364      C2365   1.399       .  A
C2364      H2369   1.086       .  S
C2365      C2366   1.403       .  A
C2366      C2367   1.511       .  S
C2367      H2371   1.111       .  S
C2367      H2372   1.111       .  S
C2367      H2373   1.108       .  S
C2370      H2374   1.111       .  S
C2370      H2375   1.093       .  S
C2370      H2376   1.111       .  S
C2377      C2378   1.402       .  A
C2377      C2382   1.402       .  A
C2377      H2384   1.076       .  S
C2378      C2379   1.422       .  A
C2379      C2380   1.406       .  A
C2379      C2386   1.504       .  S
C2380      C2381   1.403       .  A
C2380      H2385   1.085       .  S
C2381      C2382   1.417       .  A
C2382      C2383   1.510       .  S
C2383      H2387   1.111       .  S
C2383      H2388   1.108       .  S
C2383      H2389   1.111       .  S
C2386      H2390   1.100       .  S
C2386      H2391   1.110       .  S
C2386      H2392   1.111       .  S
C2393      C2394   1.398       .  A
C2393      C2398   1.387       .  A
C2393      H2400   1.080       .  S
C2394      C2395   1.413       .  A
C2395      C2396   1.394       .  A
C2395      C2402   1.501       .  S
C2396      C2397   1.394       .  A
C2396      H2401   1.085       .  S
C2397      C2398   1.405       .  A
C2398      C2399   1.509       .  S
C2399      H2403   1.111       .  S
C2399      H2404   1.109       .  S
C2399      H2405   1.109       .  S
C2402      H2406   1.109       .  S
C2402      H2407   1.105       .  S
C2402      H2408   1.111       .  S
C2409      C2410   1.406       .  A
C2409      C2414   1.394       .  A
C2409      H2416   1.081       .  S
C2410      C2411   1.420       .  A
C2411      C2412   1.391       .  A
C2411      C2418   1.502       .  S
C2412      C2413   1.395       .  A
C2412      H2417   1.085       .  S
C2413      C2414   1.409       .  A
C2414      C2415   1.504       .  S
C2415      H2419   1.111       .  S
C2415      H2420   1.110       .  S
C2415      H2421   1.103       .  S
C2418      H2422   1.099       .  S
C2418      H2423   1.101       .  S
C2418      H2424   1.111       .  S
C2425      C2426   1.400       .  A
C2425      C2430   1.386       .  A
C2425      H2432   1.079       .  S
C2426      C2427   1.424       .  A
C2427      C2428   1.394       .  A
C2427      C2434   1.502       .  S
C2428      C2429   1.392       .  A
C2428      H2433   1.085       .  S
C2429      C2430   1.405       .  A
C2430      C2431   1.509       .  S
C2431      H2435   1.111       .  S
C2431      H2436   1.107       .  S
C2431      H2437   1.110       .  S
C2434      H2438   1.111       .  S
C2434      H2439   1.091       .  S
C2434      H2440   1.111       .  S
