geometry optimzed in LAMMPS
_audit_creation_date              2020-11-30 
_audit_creation_method            'lammps2cif' 
_symmetry_space_group_name_H-M    'P1' 
_symmetry_Int_Tables_number       1 
_symmetry_cell_setting            triclinic 
loop_ 
_symmetry_equiv_pos_as_xyz 
  x,y,z 
_cell_length_a                    76.25903822 
_cell_length_b                    76.34756526668089 
_cell_length_c                    76.28843438294774 
_cell_angle_alpha                 90.0486006469901 
_cell_angle_beta                  90.05414032851579 
_cell_angle_gamma                 89.99924202058018 
loop_ 
_atom_site_label 
_atom_site_type_symbol 
_atom_site_fract_x 
_atom_site_fract_y 
_atom_site_fract_z 
_atom_site_charge 
Zn1        Zn  0.52496945  0.49697792  0.99480900     1.49700
Zn2        Zn  0.49512159  0.52630810  0.99365008     1.49400
Zn3        Zn  0.48547226  0.48611446  0.98504965     1.49100
Zn4        Zn  0.49466876  0.49717573  0.02454549     1.49500
O5          O  0.50002568  0.50166722  0.99958149    -1.82900
O6          O  0.53816750  0.51906669  0.98766539    -0.73500
O7          O  0.47612685  0.52797345  0.97493589    -0.73300
O8          O  0.50058346  0.46969253  0.97054236    -0.72800
O9          O  0.51680150  0.53859182  0.98433521    -0.73500
O10         O  0.52783823  0.47886524  0.97548394    -0.73100
O11         O  0.47024551  0.50017707  0.96838766    -0.73700
O12         O  0.47530718  0.47885676  0.02744862    -0.73100
O13         O  0.48723535  0.53972913  0.01532180    -0.73900
O14         O  0.46910626  0.47145275  0.99995552    -0.73200
O15         O  0.48605905  0.51940747  0.03622773    -0.73700
O16         O  0.51652575  0.48854355  0.03743865    -0.73600
O17         O  0.53667928  0.48720946  0.01637147    -0.73400
C18         C  0.53292740  0.53432524  0.98338162     0.78400
C19         C  0.46776119  0.51652511  0.96606673     0.78900
C20         C  0.51702227  0.46878752  0.96767547     0.77800
C21         C  0.46648347  0.46994689  0.01638077     0.78200
C22         C  0.48402192  0.53514727  0.03107169     0.79300
C23         C  0.53200085  0.48490085  0.03222695     0.78400
Zn24       Zn  0.50475106  0.97448705  0.50364744     1.49700
Zn25       Zn  0.50430895  0.00330716  0.47304723     1.49400
Zn26       Zn  0.47506806  0.00497894  0.50356037     1.49100
Zn27       Zn  0.51481926  0.01427243  0.51275631     1.49500
O28         O  0.49972993  0.99923666  0.49823694    -1.82900
O29         O  0.51395626  0.96161281  0.48222091    -0.73500
O30         O  0.48238905  0.01208495  0.46076732    -0.73300
O31         O  0.46228301  0.98331965  0.51216914    -0.72800
O32         O  0.51211055  0.98102205  0.46058548    -0.73500
O33         O  0.48248956  0.96222764  0.51173155    -0.73100
O34         O  0.46261149  0.01482047  0.48203574    -0.73700
O35         O  0.50061494  0.03022598  0.52870347    -0.73100
O36         O  0.52337575  0.02179994  0.46989359    -0.73900
O37         O  0.47298814  0.02325999  0.52265712    -0.73200
O38         O  0.52965806  0.02971974  0.49729530    -0.73700
O39         O  0.53103145  0.99976663  0.52814617    -0.73600
O40         O  0.52340737  0.97218512  0.52265914    -0.73400
C41         C  0.51576285  0.96570864  0.46612768     0.78400
C42         C  0.46715110  0.01645445  0.46602909     0.78900
C43         C  0.46686734  0.96744349  0.51464530     0.77800
C44         C  0.48421565  0.03218574  0.53119671     0.78200
C45         C  0.53185834  0.03122634  0.48081259     0.79300
C46         C  0.53278650  0.98336992  0.53080604     0.78400
Zn47       Zn  0.99182759  0.52666655  0.49527849     1.49700
Zn48       Zn  0.99287823  0.49844290  0.52684677     1.49400
Zn49       Zn  0.98146207  0.48723716  0.48756991     1.49100
Zn50       Zn  0.02175732  0.49722007  0.49643971     1.49500
O51         O  0.99698931  0.50229245  0.50158610    -1.82900
O52         O  0.98290625  0.53982660  0.51625163    -0.73500
O53         O  0.97405051  0.47977702  0.53055107    -0.73300
O54         O  0.96472811  0.50141652  0.47243629    -0.72800
O55         O  0.98466426  0.52087999  0.53835527    -0.73500
O56         O  0.97326335  0.52888975  0.47661675    -0.73100
O57         O  0.96621219  0.47242488  0.50339260    -0.73700
O58         O  0.02357217  0.47899025  0.47719076    -0.73100
O59         O  0.01509638  0.49071536  0.53948631    -0.73900
O60         O  0.99588202  0.47162769  0.47142405    -0.73200
O61         O  0.03433786  0.48769096  0.51781246    -0.73700
O62         O  0.03473376  0.51928176  0.48869249    -0.73600
O63         O  0.01338336  0.53901578  0.48652118    -0.73400
C64         C  0.98106819  0.53603742  0.53238540     0.78400
C65         C  0.96460167  0.47091329  0.51994611     0.78900
C66         C  0.96329732  0.51773692  0.46928125     0.77800
C67         C  0.01231872  0.47001085  0.46869051     0.78200
C68         C  0.03027882  0.48648072  0.53396459     0.79300
C69         C  0.02941801  0.53467225  0.48497014     0.78400
Zn70       Zn  0.98588138  0.98679790  0.98516089     1.49700
Zn71       Zn  0.99689136  0.99686114  0.02485580     1.49400
Zn72       Zn  0.02563016  0.99728485  0.99367682     1.49100
Zn73       Zn  0.99539693  0.02662832  0.99517286     1.49500
O74         O  0.00092675  0.00187929  0.99977248    -1.82900
O75         O  0.96886446  0.97326787  0.00047941    -0.73500
O76         O  0.01888694  0.98662015  0.03577678    -0.73300
O77         O  0.02770190  0.97763490  0.97586944    -0.72800
O78         O  0.97693970  0.97911225  0.02792244    -0.73500
O79         O  0.00024300  0.96892409  0.97140060    -0.73100
O80         O  0.03942141  0.98985953  0.01528143    -0.73700
O81         O  0.01727607  0.03965591  0.98698868    -0.73100
O82         O  0.99059098  0.01932779  0.03836045    -0.73900
O83         O  0.03731406  0.01876012  0.98339700    -0.73200
O84         O  0.98647543  0.03882920  0.01708018    -0.73700
O85         O  0.97676677  0.02887226  0.97615061    -0.73600
O86         O  0.97179701  0.00140121  0.96769877    -0.73400
C87         C  0.96707575  0.97115809  0.01697108     0.78400
C88         C  0.03476380  0.98538826  0.03068542     0.78900
C89         C  0.01665480  0.96738594  0.96864226     0.77800
C90         C  0.03256406  0.03470962  0.98232916     0.78200
C91         C  0.98613967  0.03461861  0.03323329     0.79300
C92         C  0.96910100  0.01782438  0.96619670     0.78400
Zn93       Zn  0.51300525  0.73435080  0.23502688     1.49700
Zn94       Zn  0.47353210  0.74532307  0.24597674     1.49400
Zn95       Zn  0.50467660  0.74441083  0.27463973     1.49100
Zn96       Zn  0.50400591  0.77429708  0.24467518     1.49500
O97         O  0.49874516  0.74962622  0.25006330    -1.82900
O98         O  0.49751526  0.71968790  0.21944035    -0.73500
O99         O  0.46156137  0.73759288  0.26846628    -0.73300
O100        O  0.52348284  0.72591119  0.27680614    -0.72800
O101        O  0.47021721  0.72636167  0.22736811    -0.73500
O102        O  0.52851451  0.71811090  0.24921847    -0.73100
O103        O  0.48339804  0.73546341  0.28774977    -0.73700
O104        O  0.51170263  0.78717501  0.26678684    -0.73100
O105        O  0.46109536  0.76731207  0.23730249    -0.73900
O106        O  0.51370137  0.76613324  0.28690074    -0.73200
O107        O  0.48262884  0.78678471  0.23479957    -0.73700
O108        O  0.52343846  0.77613717  0.22644130    -0.73600
O109        O  0.52906872  0.74842429  0.21943457    -0.73400
C110        C  0.48099923  0.71775354  0.21790497     0.78400
C111        C  0.46725332  0.73391222  0.28375041     0.78900
C112        C  0.53148586  0.71654839  0.26557822     0.77800
C113        C  0.51538431  0.78207488  0.28228662     0.78200
C114        C  0.46655654  0.78251337  0.23308041     0.79300
C115        C  0.53185187  0.76475808  0.21754947     0.78400
Zn116      Zn  0.51662500  0.23604669  0.73597529     1.49700
Zn117      Zn  0.47674761  0.24356129  0.74549625     1.49400
Zn118      Zn  0.50599716  0.24543949  0.77583610     1.49100
Zn119      Zn  0.50475454  0.27520314  0.74613087     1.49500
O120        O  0.50107263  0.25008404  0.75089101    -1.82900
O121        O  0.50293737  0.21983358  0.71967952    -0.73500
O122        O  0.46442643  0.23421950  0.76700853    -0.73300
O123        O  0.52540682  0.22727030  0.77830312    -0.72800
O124        O  0.47516532  0.22501059  0.72674062    -0.73500
O125        O  0.53277446  0.22123377  0.75072112    -0.73100
O126        O  0.48423961  0.23671557  0.78830292    -0.73700
O127        O  0.51446699  0.28763583  0.76757032    -0.73100
O128        O  0.46320870  0.26456577  0.73683441    -0.73900
O129        O  0.51389769  0.26742212  0.78853285    -0.73200
O130        O  0.48180201  0.28693170  0.73923523    -0.73700
O131        O  0.52244086  0.27881156  0.72652673    -0.73600
O132        O  0.53184103  0.25174338  0.72113772    -0.73400
C133        C  0.48658330  0.21695922  0.71765613     0.78400
C134        C  0.46891049  0.23268600  0.78302298     0.78900
C135        C  0.53477868  0.21906460  0.76715505     0.77800
C136        C  0.51701932  0.28297944  0.78340743     0.78200
C137        C  0.46667305  0.28083438  0.73554707     0.79300
C138        C  0.53248631  0.26818913  0.71844486     0.78400
Zn139      Zn  0.26412831  0.48565886  0.76460835     1.49700
Zn140      Zn  0.25398696  0.52496384  0.75384884     1.49400
Zn141      Zn  0.25438671  0.49388007  0.72482380     1.49100
Zn142      Zn  0.22414746  0.49517435  0.75447962     1.49500
O143        O  0.24909644  0.49994983  0.74941098    -1.82900
O144        O  0.28027401  0.50076158  0.77920497    -0.73500
O145        O  0.26149997  0.53687510  0.73145062    -0.73300
O146        O  0.27235721  0.47426913  0.72294210    -0.72800
O147        O  0.27347604  0.52818174  0.77212624    -0.73500
O148        O  0.27934630  0.46895807  0.75069908    -0.73100
O149        O  0.26389138  0.51519539  0.71202429    -0.73700
O150        O  0.21129069  0.48760665  0.73216737    -0.73100
O151        O  0.23224897  0.53766388  0.76240954    -0.73900
O152        O  0.23239688  0.48573127  0.71210369    -0.73200
O153        O  0.21191632  0.51684684  0.76408811    -0.73700
O154        O  0.22179106  0.47609701  0.77300329    -0.73600
O155        O  0.24942905  0.47085569  0.78081553    -0.73400
C156        C  0.28255349  0.51720871  0.78089737     0.78400
C157        C  0.26530911  0.53131615  0.71616971     0.78900
C158        C  0.28110113  0.46583433  0.73439483     0.77800
C159        C  0.21636850  0.48421288  0.71658033     0.78200
C160        C  0.21672289  0.53271238  0.76607563     0.79300
C161        C  0.23303432  0.46806920  0.78242253     0.78400
Zn162      Zn  0.39055030  0.36050912  0.89133606     1.49700
Zn163      Zn  0.39074301  0.39045447  0.86204168     1.49400
Zn164      Zn  0.36149538  0.36046745  0.86195724     1.49100
Zn165      Zn  0.36073398  0.39017648  0.89130131     1.49500
O166        O  0.37588589  0.37551365  0.87669490    -1.82900
O167        O  0.41596340  0.36384911  0.88595001    -0.73500
O168        O  0.38586677  0.38640493  0.83635598    -0.73300
O169        O  0.36493575  0.33495583  0.86714359    -0.72800
O170        O  0.41631161  0.38512491  0.86605404    -0.73500
O171        O  0.38538883  0.33505689  0.88784849    -0.73100
O172        O  0.36716320  0.36405606  0.83681976    -0.73700
O173        O  0.33507172  0.38470382  0.88708018    -0.73100
O174        O  0.38659114  0.41601465  0.86710898    -0.73900
O175        O  0.33602811  0.36561043  0.86507224    -0.73200
O176        O  0.36447782  0.41587595  0.88610644    -0.73700
O177        O  0.36621323  0.38631400  0.91685743    -0.73600
O178        O  0.38680724  0.36564649  0.91671969    -0.73400
C179        C  0.42421499  0.37409564  0.87574817     0.78400
C180        C  0.37657461  0.37498202  0.82852081     0.78900
C181        C  0.37494621  0.32691648  0.87775760     0.77800
C182        C  0.32744787  0.37505128  0.87577982     0.78200
C183        C  0.37544285  0.42405963  0.87656804     0.79300
C184        C  0.37673909  0.37613493  0.92485945     0.78400
N185        N  0.20594042  0.37319500  0.87229813    -0.02200
C186        C  0.19492492  0.38343117  0.86284880     0.00400
C187        C  0.17785411  0.38073284  0.86848204    -0.22500
C188        C  0.17863451  0.36865501  0.88198095    -0.22700
C189        C  0.19608175  0.36422733  0.88396486     0.00300
H190        H  0.16614219  0.38716713  0.86373201     0.14000
H191        H  0.16768850  0.36370703  0.88951229     0.14100
N192        N  0.37211536  0.54565493  0.87645184    -0.02200
C193        C  0.38263282  0.55602963  0.88635313     0.00400
C194        C  0.37868833  0.57343719  0.88309712    -0.22500
C195        C  0.36547623  0.57362279  0.87071175    -0.22700
C196        C  0.36170264  0.55632562  0.86675395     0.00300
H197        H  0.38481480  0.58483935  0.88888147     0.14000
H198        H  0.35959250  0.58518622  0.86501434     0.14100
N199        N  0.54558094  0.37438284  0.87579208    -0.02200
C200        C  0.55522545  0.38654084  0.88448934     0.00400
C201        C  0.57248792  0.38561800  0.87893296    -0.22500
C202        C  0.57329821  0.37258979  0.86633344    -0.22700
C203        C  0.55655903  0.36587079  0.86480062     0.00300
H204        H  0.58328493  0.39369207  0.88335619     0.14000
H205        H  0.58479094  0.36855808  0.85906647     0.14100
N206        N  0.37206449  0.37157301  0.70736378    -0.02200
C207        C  0.36103930  0.38034438  0.69655119     0.00400
C208        C  0.36236048  0.37345482  0.67977269    -0.22500
C209        C  0.37432961  0.35984281  0.68058589    -0.22700
C210        C  0.38004644  0.35903217  0.69774043     0.00300
H211        H  0.35511433  0.37748424  0.66826800     0.14000
H212        H  0.37841468  0.35152647  0.66984734     0.14100
N213        N  0.37882581  0.20568938  0.87836394    -0.02200
C214        C  0.36645355  0.19558318  0.88598731     0.00400
C215        C  0.36584877  0.17932346  0.87806257    -0.22500
C216        C  0.37835140  0.17952672  0.86497887    -0.22700
C217        C  0.38601040  0.19593124  0.86542055     0.00300
H218        H  0.35691623  0.16872760  0.88104525     0.14000
H219        H  0.38112692  0.16907947  0.85579728     0.14100
N220        N  0.37476408  0.37689213  0.04622268    -0.02200
C221        C  0.38578807  0.38620204  0.05659408     0.00400
C222        C  0.38425613  0.38039048  0.07374420    -0.22500
C223        C  0.37210358  0.36693399  0.07366692    -0.22700
C224        C  0.36647174  0.36516017  0.05655913     0.00300
H225        H  0.39143964  0.38506871  0.08504779     0.14000
H226        H  0.36782333  0.35936373  0.08485864     0.14100
Zn227      Zn  0.24688901  0.27544845  0.00488923     1.49700
Zn228      Zn  0.23696766  0.23571650  0.01526162     1.49400
Zn229      Zn  0.24727222  0.24556606  0.97559889     1.49100
Zn230      Zn  0.27672205  0.24541181  0.00612812     1.49500
O231        O  0.25198265  0.25052496  0.00047356    -1.82900
O232        O  0.22903936  0.27810530  0.02437587    -0.73500
O233        O  0.22040626  0.22105078  0.00038099    -0.73300
O234        O  0.23954620  0.26746894  0.96225347    -0.72800
O235        O  0.22270096  0.25065090  0.03183940    -0.73500
O236        O  0.23729316  0.28760934  0.98319405    -0.73100
O237        O  0.22842844  0.22694567  0.97296747    -0.73700
O238        O  0.28998173  0.23807806  0.98418379    -0.73100
O239        O  0.25133340  0.21913306  0.03031824    -0.73900
O240        O  0.26905744  0.23658836  0.96386345    -0.73200
O241        O  0.27901138  0.22575029  0.02410119    -0.73700
O242        O  0.28863061  0.26696179  0.01607453    -0.73600
O243        O  0.26895392  0.28824917  0.01271082    -0.73400
C244        C  0.22086665  0.26710661  0.03390551     0.78400
C245        C  0.21886914  0.21869668  0.98390260     0.78900
C246        C  0.23571758  0.28295210  0.96722023     0.77800
C247        C  0.28496407  0.23473605  0.96859026     0.78200
C248        C  0.26773025  0.21673473  0.03248925     0.79300
C249        C  0.28416433  0.28301012  0.01726550     0.78400
Zn250      Zn  0.74468760  0.47414761  0.24425067     1.49700
Zn251      Zn  0.74425414  0.50358510  0.27418225     1.49400
Zn252      Zn  0.77331557  0.50512088  0.24357195     1.49100
Zn253      Zn  0.73330441  0.51377934  0.23491146     1.49500
O254        O  0.74888458  0.49914061  0.24922613    -1.82900
O255        O  0.73628689  0.46116296  0.26589521    -0.73500
O256        O  0.76655847  0.51100828  0.28650014    -0.73300
O257        O  0.78617702  0.48390160  0.23440871    -0.72800
O258        O  0.73519442  0.48187659  0.28636571    -0.73500
O259        O  0.76686162  0.46214274  0.23624505    -0.73100
O260        O  0.78629193  0.51369274  0.26517715    -0.73700
O261        O  0.74701741  0.53004712  0.21889563    -0.73100
O262        O  0.72588889  0.52253109  0.27748449    -0.73900
O263        O  0.77485199  0.52383797  0.22488784    -0.73200
O264        O  0.71782169  0.52882151  0.25017907    -0.73700
O265        O  0.71772746  0.49870420  0.21968016    -0.73600
O266        O  0.72649548  0.47138711  0.22495884    -0.73400
C267        C  0.73303765  0.46605950  0.28153193     0.78400
C268        C  0.78197508  0.51478183  0.28127339     0.78900
C269        C  0.78212734  0.46782277  0.23262404     0.77800
C270        C  0.76336189  0.53245615  0.21639249     0.78200
C271        C  0.71642278  0.53103163  0.26666290     0.79300
C272        C  0.71680408  0.48229405  0.21680209     0.78400
Zn273      Zn  0.25288738  0.72310959  0.49606646     1.49700
Zn274      Zn  0.25435443  0.75306717  0.52557754     1.49400
Zn275      Zn  0.26456899  0.76234841  0.48585349     1.49100
Zn276      Zn  0.22483928  0.75464704  0.49520023     1.49500
O277        O  0.24917173  0.74823205  0.50071191    -1.82900
O278        O  0.26013154  0.71034812  0.51817464    -0.73500
O279        O  0.27317611  0.77170528  0.52803860    -0.73300
O280        O  0.27998585  0.74679806  0.47131813    -0.72800
O281        O  0.26291433  0.73135372  0.53819818    -0.73500
O282        O  0.27197894  0.71946866  0.47757287    -0.73100
O283        O  0.28028340  0.77780495  0.50043687    -0.73700
O284        O  0.22315458  0.77309392  0.47632201    -0.73100
O285        O  0.23246401  0.76147571  0.53812300    -0.73900
O286        O  0.25094893  0.77804461  0.46927649    -0.73200
O287        O  0.21280248  0.76416950  0.51668094    -0.73700
O288        O  0.21123547  0.73361343  0.48655206    -0.73600
O289        O  0.23042821  0.71168181  0.48778333    -0.73400
C290        C  0.26392522  0.71533690  0.53366033     0.78400
C291        C  0.28222279  0.78016353  0.51684267     0.78900
C292        C  0.28153281  0.73033931  0.46919304     0.77800
C293        C  0.23463657  0.78097164  0.46717845     0.78200
C294        C  0.21721828  0.76567039  0.53271614     0.79300
C295        C  0.21513278  0.71751798  0.48449906     0.78400
Zn296      Zn  0.60842633  0.60955868  0.13919482     1.49700
Zn297      Zn  0.63915768  0.60923405  0.11089046     1.49400
Zn298      Zn  0.60880462  0.63791744  0.10898601     1.49100
Zn299      Zn  0.63775533  0.63946179  0.13939499     1.49500
O300        O  0.62354491  0.62408802  0.12463709    -1.82900
O301        O  0.61194131  0.58409063  0.13391623    -0.73500
O302        O  0.63583415  0.61309357  0.08521062    -0.73300
O303        O  0.58320131  0.63365795  0.11301900    -0.72800
O304        O  0.63437903  0.58387146  0.11531522    -0.73500
O305        O  0.58294736  0.61493296  0.13527761    -0.73100
O306        O  0.61364956  0.63196122  0.08392778    -0.73700
O307        O  0.63281712  0.66469553  0.13402256    -0.73100
O308        O  0.66437957  0.61395772  0.11617495    -0.73900
O309        O  0.61299278  0.66362242  0.11261293    -0.73200
O310        O  0.66354972  0.63555700  0.13568759    -0.73700
O311        O  0.63294774  0.63508963  0.16488411    -0.73600
O312        O  0.61354685  0.61332262  0.16464496    -0.73400
C313        C  0.62293037  0.57591884  0.12441410     0.78400
C314        C  0.62488973  0.62215159  0.07652387     0.78900
C315        C  0.57497033  0.62443404  0.12414758     0.77800
C316        C  0.62276739  0.67222548  0.12305544     0.78200
C317        C  0.67205727  0.62489360  0.12611426     0.79300
C318        C  0.62329966  0.62408434  0.17284205     0.78400
N319        N  0.62584152  0.62566936  0.95549611    -0.02200
C320        C  0.63588894  0.63646986  0.94561204     0.00400
C321        C  0.63163255  0.63416104  0.92810109    -0.22500
C322        C  0.61834390  0.62179563  0.92741924    -0.22700
C323        C  0.61518879  0.61675207  0.94450108     0.00300
H324        H  0.63732876  0.64093820  0.91703237     0.14000
H325        H  0.61194681  0.61685898  0.91575361     0.14100
N326        N  0.62455416  0.45480294  0.12262632    -0.02200
C327        C  0.61569712  0.44384537  0.11192202     0.00400
C328        C  0.62227592  0.42706774  0.11342920    -0.22500
C329        C  0.63558892  0.42785609  0.12575767    -0.22700
C330        C  0.63676612  0.44513587  0.13117027     0.00300
H331        H  0.61796098  0.41556903  0.10633570     0.14000
H332        H  0.64359732  0.41702042  0.13017273     0.14100
N333        N  0.79347463  0.62472953  0.12428271    -0.02200
C334        C  0.80408552  0.63449428  0.11396716     0.00400
C335        C  0.82137536  0.62977536  0.11690786    -0.22500
C336        C  0.82119432  0.61673834  0.12945499    -0.22700
C337        C  0.80379995  0.61388495  0.13379732     0.00300
H338        H  0.83292209  0.63518058  0.11071790     0.14000
H339        H  0.83257258  0.61016836  0.13478994     0.14100
N340        N  0.45357475  0.62713963  0.12200575    -0.02200
C341        C  0.44271480  0.61606572  0.11345840     0.00400
C342        C  0.42579049  0.61798892  0.11960003    -0.22500
C343        C  0.42639346  0.63088173  0.13234162    -0.22700
C344        C  0.44371240  0.63618982  0.13372366     0.00300
H345        H  0.41431943  0.61077354  0.11539421     0.14000
H346        H  0.41542509  0.63560258  0.13999534     0.14100
N347        N  0.62153254  0.79349444  0.12258781    -0.02200
C348        C  0.63182068  0.80384593  0.11246117     0.00400
C349        C  0.62837138  0.82123099  0.11620987    -0.22500
C350        C  0.61548766  0.82142440  0.12895624    -0.22700
C351        C  0.61156467  0.80411330  0.13270560     0.00300
H352        H  0.63453922  0.83256400  0.11034726     0.14000
H353        H  0.60986077  0.83297174  0.13494514     0.14100
N354        N  0.62427034  0.62535543  0.29414897    -0.02200
C355        C  0.61498427  0.63566426  0.30519250     0.00400
C356        C  0.61951851  0.63181977  0.32232954    -0.22500
C357        C  0.63196834  0.61864706  0.32158296    -0.22700
C358        C  0.63466940  0.61485678  0.30404000     0.00300
H359        H  0.61433575  0.63778075  0.33410316     0.14000
H360        H  0.63833138  0.61250764  0.33267340     0.14100
Zn361      Zn  0.74641031  0.74703296  0.97540268     1.49700
Zn362      Zn  0.74655834  0.77669435  0.00569911     1.49400
Zn363      Zn  0.73545619  0.73719361  0.01479526     1.49100
Zn364      Zn  0.77575449  0.74607003  0.00572356     1.49500
O365        O  0.75109201  0.75177097  0.00039214    -1.82900
O366        O  0.73656899  0.76870393  0.96356909    -0.73500
O367        O  0.72741160  0.77939746  0.02407685    -0.73300
O368        O  0.72043216  0.72138398  0.99974451    -0.72800
O369        O  0.73848222  0.78969700  0.98376110    -0.73500
O370        O  0.72843181  0.72750142  0.97240360    -0.73100
O371        O  0.71899334  0.75200642  0.02923901    -0.73700
O372        O  0.77720132  0.72791349  0.02528327    -0.73100
O373        O  0.76844007  0.78859230  0.01508365    -0.73900
O374        O  0.74933425  0.72201080  0.03158967    -0.73200
O375        O  0.78906891  0.76801495  0.01359693    -0.73700
O376        O  0.78813548  0.73619633  0.98418826    -0.73600
O377        O  0.76874606  0.73967054  0.96263960    -0.73400
C378        C  0.73459589  0.78460544  0.96830829     0.78400
C379        C  0.71754368  0.76840477  0.03185905     0.78900
C380        C  0.71912648  0.71890407  0.98329037     0.77800
C381        C  0.76568331  0.71968764  0.03417513     0.78200
C382        C  0.78428485  0.78366809  0.01707281     0.79300
C383        C  0.78394918  0.73520537  0.96802781     0.78400
Zn384      Zn  0.14005349  0.63932983  0.63951236     1.49700
Zn385      Zn  0.11009707  0.63865738  0.61009110     1.49400
Zn386      Zn  0.13936308  0.60858384  0.61120689     1.49100
Zn387      Zn  0.10966893  0.61042688  0.64058416     1.49500
O388        O  0.12478426  0.62428213  0.62531646    -1.82900
O389        O  0.13468985  0.66482511  0.63551502    -0.73500
O390        O  0.11528201  0.63345008  0.58472085    -0.73300
O391        O  0.16495195  0.61194410  0.61641479    -0.72800
O392        O  0.11434881  0.66433801  0.61459841    -0.73500
O393        O  0.16543640  0.63528917  0.63386787    -0.73100
O394        O  0.13569718  0.61262672  0.58537813    -0.73700
O395        O  0.11374550  0.58470209  0.63723690    -0.73100
O396        O  0.08431771  0.63422514  0.61433404    -0.73900
O397        O  0.13379102  0.58349372  0.61613056    -0.73200
O398        O  0.08406733  0.61479690  0.63599174    -0.73700
O399        O  0.11446731  0.61604085  0.66571992    -0.73600
O400        O  0.13697707  0.63456916  0.66529942    -0.73400
C401        C  0.12425512  0.67268339  0.62514971     0.78400
C402        C  0.12562620  0.62290702  0.57694675     0.78900
C403        C  0.17327434  0.62346084  0.62511920     0.77800
C404        C  0.12353552  0.57603461  0.62690822     0.78200
C405        C  0.07605625  0.62454468  0.62510280     0.79300
C406        C  0.12582742  0.62538302  0.67359187     0.78400
N407        N  0.95439384  0.63009328  0.62336080    -0.02200
C408        C  0.94424577  0.64266441  0.63060098     0.00400
C409        C  0.92809726  0.64328491  0.62233797    -0.22500
C410        C  0.92848176  0.63070961  0.60935408    -0.22700
C411        C  0.94478894  0.62290352  0.61031013     0.00300
H412        H  0.91739472  0.65215823  0.62513950     0.14000
H413        H  0.91815719  0.62782287  0.60004952     0.14100
N414        N  0.12432573  0.79424318  0.62474303    -0.02200
C415        C  0.13243938  0.80395899  0.61233201     0.00400
C416        C  0.12530244  0.82058353  0.61176197    -0.22500
C417        C  0.11220457  0.82101795  0.62421918    -0.22700
C418        C  0.11180614  0.80458899  0.63184583     0.00300
H419        H  0.12891602  0.83109336  0.60296859     0.14000
H420        H  0.10363809  0.83195747  0.62704380     0.14100
N421        N  0.12292971  0.62574758  0.45541417    -0.02200
C422        C  0.13010578  0.63844864  0.44534117     0.00400
C423        C  0.12120054  0.63975422  0.42960835    -0.22500
C424        C  0.10800198  0.62738229  0.43008916    -0.22700
C425        C  0.10939211  0.61903521  0.44609622     0.00300
H426        H  0.12364856  0.64904952  0.41919288     0.14000
H427        H  0.09818376  0.62509352  0.42009607     0.14100
N428        N  0.12469848  0.62515861  0.79502395    -0.02200
C429        C  0.13245270  0.61297270  0.80536698     0.00400
C430        C  0.12430743  0.61256745  0.82156084    -0.22500
C431        C  0.11100751  0.62481627  0.82102826    -0.22700
C432        C  0.11144631  0.63221713  0.80449310     0.00300
H433        H  0.12730151  0.60390000  0.83237289     0.14000
H434        H  0.10176549  0.62764044  0.83140507     0.14100
N435        N  0.12237317  0.45485770  0.62596206    -0.02200
C436        C  0.13561906  0.44500461  0.63241440     0.00400
C437        C  0.13579134  0.42879138  0.62432115    -0.22500
C438        C  0.12216989  0.42885094  0.61233867    -0.22700
C439        C  0.11420960  0.44507687  0.61360490     0.00300
H440        H  0.14508746  0.41830450  0.62648005     0.14000
H441        H  0.11887807  0.41846088  0.60325792     0.14100
N442        N  0.29466830  0.62039811  0.62191233    -0.02200
C443        C  0.30534532  0.60990603  0.63133696     0.00400
C444        C  0.32260544  0.61496741  0.62903232    -0.22500
C445        C  0.32232379  0.62931810  0.61793095    -0.22700
C446        C  0.30491732  0.63227540  0.61378466     0.00300
H447        H  0.33402753  0.60942539  0.63536696     0.14000
H448        H  0.33353829  0.63672531  0.61341616     0.14100
Zn449      Zn  0.99395543  0.75666771  0.72551174     1.49700
Zn450      Zn  0.99497354  0.72638226  0.75522711     1.49400
Zn451      Zn  0.02518886  0.75542869  0.75379835     1.49100
Zn452      Zn  0.98561799  0.76613362  0.76514775     1.49500
O453        O  0.99997705  0.75112784  0.74994424    -1.82900
O454        O  0.98487058  0.73502815  0.71337027    -0.73500
O455        O  0.01662810  0.71373879  0.76405374    -0.73300
O456        O  0.03680736  0.76303835  0.73125508    -0.72800
O457        O  0.98694379  0.71376140  0.73325898    -0.73500
O458        O  0.01505065  0.76549450  0.71195912    -0.73100
O459        O  0.03801252  0.73333554  0.76137203    -0.73700
O460        O  0.00133766  0.78251910  0.77881751    -0.73100
O461        O  0.97621450  0.72409791  0.77404757    -0.73900
O462        O  0.02869670  0.77450356  0.77238742    -0.73200
O463        O  0.97160689  0.75165340  0.78234159    -0.73700
O464        O  0.96792351  0.78070692  0.75142659    -0.73600
O465        O  0.97506380  0.77505009  0.72378882    -0.73400
C466        C  0.98324183  0.71905052  0.71785042     0.78400
C467        C  0.03273920  0.71797080  0.76518155     0.78900
C468        C  0.03121943  0.76671774  0.71595882     0.77800
C469        C  0.01787458  0.78414587  0.78076343     0.78200
C470        C  0.96869781  0.73529583  0.78391097     0.79300
C471        C  0.96572799  0.78306137  0.73504799     0.78400
Zn472      Zn  0.89038527  0.88833652  0.89143483     1.49700
Zn473      Zn  0.86046478  0.85985937  0.89129474     1.49400
Zn474      Zn  0.86123016  0.88878963  0.86163630     1.49100
Zn475      Zn  0.89003761  0.85891868  0.86183444     1.49500
O476        O  0.87553912  0.87393989  0.87651858    -1.82900
O477        O  0.88796132  0.88202700  0.91694513    -0.73500
O478        O  0.83515596  0.86446284  0.88646389    -0.73300
O479        O  0.86752016  0.91395856  0.86501537    -0.72800
O480        O  0.86477072  0.86440582  0.91671612    -0.73500
O481        O  0.88454635  0.91371761  0.88872902    -0.73100
O482        O  0.83567479  0.88624846  0.86715229    -0.73700
O483        O  0.88751619  0.86506778  0.83631995    -0.73100
O484        O  0.86462170  0.83450880  0.88714801    -0.73900
O485        O  0.86465654  0.88315607  0.83627127    -0.73200
O486        O  0.88321080  0.83363161  0.86468553    -0.73700
O487        O  0.91548539  0.86167049  0.86798613    -0.73600
O488        O  0.91559237  0.88543626  0.88492724    -0.73400
C489        C  0.87655563  0.87287220  0.92490962     0.78400
C490        C  0.82735616  0.87566430  0.87694999     0.78900
C491        C  0.87611452  0.92187006  0.87689691     0.77800
C492        C  0.87621873  0.87427817  0.82823081     0.78200
C493        C  0.87340451  0.82605031  0.87581896     0.79300
C494        C  0.92358459  0.87360477  0.87635098     0.78400
N495        N  0.87618209  0.87663509  0.04622507    -0.02200
C496        C  0.86434946  0.86841548  0.05664084     0.00400
C497        C  0.86562290  0.87462684  0.07359181    -0.22500
C498        C  0.87874613  0.88709164  0.07358723    -0.22700
C499        C  0.88488734  0.88835424  0.05653972     0.00300
H500        H  0.85779448  0.87063720  0.08471762     0.14000
H501        H  0.88278475  0.89492682  0.08470450     0.14100
N502        N  0.87396724  0.87690825  0.70690410    -0.02200
C503        C  0.86466249  0.88729381  0.69582420     0.00400
C504        C  0.86769577  0.88221322  0.67869668    -0.22500
C505        C  0.87955028  0.86854434  0.67931178    -0.22700
C506        C  0.88307269  0.86544221  0.69681363     0.00300
H507        H  0.86216764  0.88802287  0.66699665     0.14000
H508        H  0.88487534  0.86152886  0.66819369     0.14100
N509        N  0.87756881  0.70521452  0.87765308    -0.02200
C510        C  0.86977085  0.69478630  0.88971171     0.00400
C511        C  0.87652372  0.67803172  0.88869104    -0.22500
C512        C  0.88887456  0.67821651  0.87544923    -0.22700
C513        C  0.88948006  0.69516820  0.86899029     0.00300
H514        H  0.87289128  0.66689987  0.89667013     0.14000
H515        H  0.89696186  0.66728208  0.87144278     0.14100
N516        N  0.70587593  0.87536554  0.87523360    -0.02200
C517        C  0.69572471  0.88499658  0.86416214     0.00400
C518        C  0.67821480  0.88099805  0.86699031    -0.22500
C519        C  0.67765319  0.86850931  0.88004303    -0.22700
C520        C  0.69476993  0.86544067  0.88498984     0.00300
H521        H  0.66700200  0.88636213  0.86015554     0.14000
H522        H  0.66600831  0.86253551  0.88550218     0.14100
N523        N  0.04489970  0.87170821  0.87810407    -0.02200
C524        C  0.05490852  0.88200977  0.88862975     0.00400
C525        C  0.07244031  0.87904998  0.88509299    -0.22500
C526        C  0.07314647  0.86639607  0.87213340    -0.22700
C527        C  0.05599413  0.86217779  0.86793973     0.00300
H528        H  0.08354172  0.88539194  0.89125520     0.14000
H529        H  0.08491223  0.86127769  0.86609476     0.14100
N530        N  0.87424677  0.04300662  0.87399134    -0.02200
C531        C  0.86374763  0.05366901  0.86428427     0.00400
C532        C  0.86772884  0.07096069  0.86791485    -0.22500
C533        C  0.88080765  0.07086352  0.88047326    -0.22700
C534        C  0.88471425  0.05351487  0.88386395     0.00300
H535        H  0.86159070  0.08242823  0.86227395     0.14000
H536        H  0.88699796  0.08223758  0.88626096     0.14100
Zn537      Zn  0.61319628  0.10914678  0.64207711     1.49700
Zn538      Zn  0.64137542  0.10866795  0.61115393     1.49400
Zn539      Zn  0.61205215  0.13841967  0.61230511     1.49100
Zn540      Zn  0.64280830  0.13861753  0.64052518     1.49500
O541        O  0.62737612  0.12366741  0.62652021    -1.82900
O542        O  0.61733217  0.08359155  0.63750365    -0.73500
O543        O  0.63591416  0.11325181  0.58587938    -0.73300
O544        O  0.58681018  0.13426149  0.61789146    -0.72800
O545        O  0.63645979  0.08310060  0.61552109    -0.73500
O546        O  0.58736185  0.11390356  0.63871146    -0.73100
O547        O  0.61557347  0.13409873  0.58663270    -0.73700
O548        O  0.63954629  0.16402164  0.63451713    -0.73100
O549        O  0.66720103  0.11298919  0.61481286    -0.73900
O550        O  0.61667823  0.16380200  0.61643180    -0.73200
O551        O  0.66810349  0.13255066  0.63644405    -0.73700
O552        O  0.63795404  0.13603142  0.66629775    -0.73600
O553        O  0.61901983  0.11389578  0.66733184    -0.73400
C554        C  0.62670440  0.07525158  0.62651457     0.78400
C555        C  0.62546847  0.12370941  0.57817792     0.78900
C556        C  0.57899595  0.12424568  0.62863664     0.77800
C557        C  0.62824656  0.17197384  0.62518278     0.78200
C558        C  0.67574325  0.12251658  0.62552926     0.79300
C559        C  0.62858337  0.12527122  0.67489915     0.78400
N560        N  0.62246534  0.95385191  0.62587223    -0.02200
C561        C  0.61178684  0.94338807  0.61624993     0.00400
C562        C  0.61231450  0.92651151  0.62296690    -0.22500
C563        C  0.62344484  0.92686611  0.63729911    -0.22700
C564        C  0.62945207  0.94387070  0.63871644     0.00300
H565        H  0.60506808  0.91524073  0.61833215     0.14000
H566        H  0.62685443  0.91591990  0.64563379     0.14100
N567        N  0.62264501  0.12758553  0.45695895    -0.02200
C568        C  0.61280899  0.11724039  0.44631070     0.00400
C569        C  0.61675845  0.12103225  0.42902850    -0.22500
C570        C  0.62932688  0.13413858  0.42923499    -0.22700
C571        C  0.63288118  0.13783163  0.44664022     0.00300
H572        H  0.61112922  0.11496716  0.41749889     0.14000
H573        H  0.63542360  0.14006786  0.41789546     0.14100
N574        N  0.62615804  0.12625729  0.79642510    -0.02200
C575        C  0.63444370  0.11438348  0.80662677     0.00400
C576        C  0.62966400  0.11665692  0.82393953    -0.22500
C577        C  0.61800295  0.13052204  0.82427569    -0.22700
C578        C  0.61596656  0.13612152  0.80710275     0.00300
H579        H  0.63419356  0.10915963  0.83509036     0.14000
H580        H  0.61148267  0.13562551  0.83578232     0.14100
N581        N  0.45766279  0.12565066  0.62487073    -0.02200
C582        C  0.44775128  0.11491524  0.61472210     0.00400
C583        C  0.43019553  0.11803096  0.61814661    -0.22500
C584        C  0.42946438  0.13109860  0.63071817    -0.22700
C585        C  0.44662384  0.13555432  0.63461047     0.00300
H586        H  0.41908566  0.11158549  0.61210832     0.14000
H587        H  0.41768964  0.13666522  0.63632301     0.14100
N588        N  0.79714697  0.12194087  0.61990115    -0.02200
C589        C  0.80788375  0.13251882  0.61048319     0.00400
C590        C  0.82500846  0.13027220  0.61621995    -0.22500
C591        C  0.82454239  0.11819737  0.62974153    -0.22700
C592        C  0.80722794  0.11329287  0.63164598     0.00300
H593        H  0.83655278  0.13703432  0.61154071     0.14000
H594        H  0.83560607  0.11354656  0.63731216     0.14100
N595        N  0.62421645  0.29304902  0.62417012    -0.02200
C596        C  0.63439704  0.30316270  0.61372500     0.00400
C597        C  0.63088969  0.32062924  0.61708071    -0.22500
C598        C  0.61801755  0.32108656  0.62987564    -0.22700
C599        C  0.61428573  0.30388962  0.63415388     0.00300
H600        H  0.63697033  0.33183500  0.61089354     0.14000
H601        H  0.61233225  0.33270645  0.63568209     0.14100
Zn602      Zn  0.75242729  0.99621707  0.72308518     1.49700
Zn603      Zn  0.75359947  0.02612936  0.75224384     1.49400
Zn604      Zn  0.72430718  0.99537913  0.75472269     1.49100
Zn605      Zn  0.76436704  0.98683132  0.76272792     1.49500
O606        O  0.74863316  0.00112873  0.74816890    -1.82900
O607        O  0.76044987  0.01788536  0.70964226    -0.73500
O608        O  0.73126969  0.03862628  0.75964608    -0.73300
O609        O  0.71074661  0.98624999  0.73352825    -0.72800
O610        O  0.76306340  0.03804185  0.73049113    -0.73500
O611        O  0.73002118  0.98769082  0.71166861    -0.73100
O612        O  0.71193746  0.01712275  0.76384478    -0.73700
O613        O  0.75106208  0.96904370  0.77763942    -0.73100
O614        O  0.77195758  0.02944084  0.77132570    -0.73900
O615        O  0.72321143  0.97655291  0.77357076    -0.73200
O616        O  0.77827105  0.00215122  0.77934934    -0.73700
O617        O  0.78152446  0.97370662  0.74734815    -0.73600
O618        O  0.77151891  0.97784100  0.72020346    -0.73400
C619        C  0.76462674  0.03328251  0.71456696     0.78400
C620        C  0.71612844  0.03328563  0.76433249     0.78900
C621        C  0.71470760  0.98426187  0.71740947     0.77800
C622        C  0.73479680  0.96704988  0.78095645     0.78200
C623        C  0.78027524  0.01863512  0.78097353     0.79300
C624        C  0.78231671  0.97085611  0.73090598     0.78400
Zn625      Zn  0.73709288  0.23568227  0.51381902     1.49700
Zn626      Zn  0.77682093  0.24630838  0.50344530     1.49400
Zn627      Zn  0.74591526  0.24691630  0.47447245     1.49100
Zn628      Zn  0.74653874  0.27582466  0.50538609     1.49500
O629        O  0.75165668  0.25119409  0.49929903    -1.82900
O630        O  0.75245079  0.21994982  0.52867895    -0.73500
O631        O  0.78879469  0.23883271  0.48079645    -0.73300
O632        O  0.72629831  0.22898514  0.47156400    -0.72800
O633        O  0.77995314  0.22677354  0.52169849    -0.73500
O634        O  0.72137405  0.22020859  0.49888694    -0.73100
O635        O  0.76719476  0.23814682  0.46116775    -0.73700
O636        O  0.73751659  0.28933197  0.48413068    -0.73100
O637        O  0.78943434  0.26812880  0.51227637    -0.73900
O638        O  0.73812647  0.26936565  0.46286782    -0.73200
O639        O  0.76829233  0.28808696  0.51459760    -0.73700
O640        O  0.72817752  0.27737886  0.52443250    -0.73600
O641        O  0.72115352  0.24966673  0.52999388    -0.73400
C642        C  0.76893352  0.21772726  0.53045704     0.78400
C643        C  0.78325105  0.23599139  0.46526917     0.78900
C644        C  0.71820266  0.21931469  0.48250889     0.77800
C645        C  0.73519685  0.28492325  0.46816729     0.78200
C646        C  0.78426684  0.28350197  0.51631090     0.79300
C647        C  0.71923565  0.26602018  0.53275902     0.78400
Zn648      Zn  0.39198123  0.88956701  0.35610764     1.49700
Zn649      Zn  0.39258132  0.86101868  0.38676889     1.49400
Zn650      Zn  0.36292936  0.89032113  0.38660240     1.49100
Zn651      Zn  0.36253877  0.86012783  0.35778729     1.49500
O652        O  0.37752024  0.87532520  0.37183430    -1.82900
O653        O  0.41776120  0.88610290  0.36085064    -0.73500
O654        O  0.38790451  0.86512014  0.41234585    -0.73300
O655        O  0.36765091  0.91569070  0.38147029    -0.72800
O656        O  0.41775423  0.86663854  0.38252216    -0.73500
O657        O  0.38646806  0.91514812  0.35916543    -0.73100
O658        O  0.36776899  0.88616035  0.41219581    -0.73700
O659        O  0.33721853  0.86384173  0.36325165    -0.73100
O660        O  0.38925154  0.83535348  0.38202886    -0.73900
O661        O  0.33716066  0.88555611  0.38268259    -0.73200
O662        O  0.36782241  0.83489087  0.36226517    -0.73700
O663        O  0.36586464  0.86424548  0.33208925    -0.73600
O664        O  0.38772781  0.88345361  0.33085062    -0.73400
C665        C  0.42584323  0.87655557  0.37186844     0.78400
C666        C  0.37781562  0.87565591  0.42038143     0.78900
C667        C  0.37693791  0.92348237  0.37002865     0.77800
C668        C  0.32909431  0.87441457  0.37323330     0.78200
C669        C  0.37876611  0.82704369  0.37207773     0.79300
C670        C  0.37663692  0.87349338  0.32339014     0.78400
N671        N  0.20770591  0.87302855  0.37451781    -0.02200
C672        C  0.19661159  0.86365971  0.38469706     0.00400
C673        C  0.17947857  0.86816303  0.38073767    -0.22500
C674        C  0.18027038  0.88064911  0.36762993    -0.22700
C675        C  0.19783010  0.88334797  0.36392945     0.00300
H676        H  0.16767075  0.86295946  0.38660461     0.14000
H677        H  0.16919520  0.88694676  0.36138542     0.14100
N678        N  0.54719108  0.87409482  0.37318340    -0.02200
C679        C  0.55649743  0.88144974  0.38638640     0.00400
C680        C  0.57278235  0.87359695  0.38762750    -0.22500
C681        C  0.57334277  0.86081146  0.37478442    -0.22700
C682        C  0.55734329  0.86133586  0.36622185     0.00300
H683        H  0.58291590  0.87645825  0.39714586     0.14000
H684        H  0.58399461  0.85175873  0.37239484     0.14100
N685        N  0.37613310  0.87357256  0.54184220    -0.02200
C686        C  0.36399239  0.86504995  0.55165637     0.00400
C687        C  0.36477598  0.87108953  0.56876729    -0.22500
C688        C  0.37740310  0.88407193  0.56924262    -0.22700
C689        C  0.38414177  0.88523694  0.55250667     0.00300
H690        H  0.35664707  0.86693818  0.57961603     0.14000
H691        H  0.38109718  0.89189490  0.58048872     0.14100
N692        N  0.37854574  0.70597602  0.37884010    -0.02200
C693        C  0.36858680  0.69591586  0.38957872     0.00400
C694        C  0.37381405  0.67860110  0.38804693    -0.22500
C695        C  0.38754800  0.67820200  0.37621162    -0.22700
C696        C  0.39005081  0.69525242  0.37073723     0.00300
H697        H  0.36838653  0.66746900  0.39493426     0.14000
H698        H  0.39464332  0.66672404  0.37186062     0.14100
N699        N  0.37459560  0.87356526  0.20210843    -0.02200
C700        C  0.38557936  0.86493834  0.19123909     0.00400
C701        C  0.38294446  0.87042316  0.17419873    -0.22500
C702        C  0.36964567  0.88279870  0.17477352    -0.22700
C703        C  0.36486000  0.88466912  0.19219697     0.00300
H704        H  0.38975839  0.86584702  0.16263478     0.14000
H705        H  0.36434586  0.88992074  0.16371461     0.14100
N706        N  0.37638858  0.04489380  0.37148971    -0.02200
C707        C  0.38496482  0.05517598  0.38318983     0.00400
C708        C  0.37960955  0.07234406  0.38134951    -0.22500
C709        C  0.36742230  0.07256867  0.36792335    -0.22700
C710        C  0.36554160  0.05544597  0.36213978     0.00300
H711        H  0.38407918  0.08349469  0.38889443     0.14000
H712        H  0.36036203  0.08395906  0.36331562     0.14100
Zn713      Zn  0.26494815  0.98460766  0.26238452     1.49700
Zn714      Zn  0.25483243  0.99537010  0.22316365     1.49400
Zn715      Zn  0.22493600  0.99271894  0.25271586     1.49100
Zn716      Zn  0.25290231  0.02444556  0.25365632     1.49500
O717        O  0.24942235  0.99935909  0.24806620    -1.82900
O718        O  0.28059383  0.96945842  0.24704082    -0.73500
O719        O  0.23296101  0.98864606  0.20980258    -0.73300
O720        O  0.22329446  0.97386502  0.27121520    -0.72800
O721        O  0.27243733  0.97572034  0.21977782    -0.73500
O722        O  0.25102082  0.96803051  0.27806061    -0.73100
O723        O  0.21309872  0.98373160  0.23058932    -0.73700
O724        O  0.23003675  0.03565471  0.26192154    -0.73100
O725        O  0.26486153  0.01716810  0.21197435    -0.73900
O726        O  0.21103773  0.01352392  0.26161464    -0.73200
O727        O  0.26081664  0.03791992  0.23207305    -0.73700
O728        O  0.27198486  0.02734521  0.27249939    -0.73600
O729        O  0.28032549  0.99988101  0.27778970    -0.73400
C730        C  0.28177262  0.96702977  0.23055039     0.78400
C731        C  0.21774078  0.98368394  0.21454657     0.78900
C732        C  0.23463763  0.96534333  0.28001161     0.77800
C733        C  0.21465924  0.02957941  0.26443622     0.78200
C734        C  0.26565181  0.03310852  0.21682140     0.79300
C735        C  0.28169038  0.01631510  0.28054041     0.78400
Zn736      Zn  0.11182286  0.13839750  0.11082697     1.49700
Zn737      Zn  0.14233400  0.10973834  0.10905024     1.49400
Zn738      Zn  0.14107721  0.13718173  0.14062626     1.49100
Zn739      Zn  0.11232866  0.10682811  0.13805751     1.49500
O740        O  0.12691626  0.12301727  0.12463758    -1.82900
O741        O  0.11473914  0.13400518  0.08503996    -0.73500
O742        O  0.16765094  0.11545403  0.11355447    -0.73300
O743        O  0.13619652  0.16277425  0.13748397    -0.72800
O744        O  0.13686785  0.11505700  0.08378334    -0.73500
O745        O  0.11702232  0.16377867  0.11553541    -0.73100
O746        O  0.16687738  0.13350781  0.13644029    -0.73700
O747        O  0.11711842  0.10916588  0.16390757    -0.73100
O748        O  0.13930863  0.08367125  0.11240979    -0.73900
O749        O  0.13597720  0.13132749  0.16568601    -0.73200
O750        O  0.11703194  0.08201107  0.13112783    -0.73700
O751        O  0.08657330  0.11135667  0.13434373    -0.73600
O752        O  0.08650953  0.13438917  0.11654141    -0.73400
C753        C  0.12538215  0.12458350  0.07632565     0.78400
C754        C  0.17536275  0.12477121  0.12504154     0.78900
C755        C  0.12666195  0.17135510  0.12683933     0.77800
C756        C  0.12642461  0.11974159  0.17286574     0.78200
C757        C  0.12831990  0.07477084  0.12123225     0.79300
C758        C  0.07844589  0.12304394  0.12567280     0.78400
N759        N  0.12452785  0.12681102  0.95489807    -0.02200
C760        C  0.11621982  0.11575888  0.94379559     0.00400
C761        C  0.12221389  0.11829082  0.92689809    -0.22500
C762        C  0.13461583  0.13148307  0.92777197    -0.22700
C763        C  0.13588984  0.13645217  0.94519082     0.00300
H764        H  0.11806588  0.11134765  0.91523933     0.14000
H765        H  0.14204535  0.13671107  0.91688945     0.14100
N766        N  0.13137481  0.95342678  0.11760775    -0.02200
C767        C  0.13912025  0.94294170  0.12963586     0.00400
C768        C  0.13203121  0.92627923  0.12878092    -0.22500
C769        C  0.11931560  0.92669136  0.11588611    -0.22700
C770        C  0.11914621  0.94356625  0.10936400     0.00300
H771        H  0.13525334  0.91523652  0.13706253     0.14000
H772        H  0.11075319  0.91603009  0.11211500     0.14100
N773        N  0.95711481  0.12960732  0.12367961    -0.02200
C774        C  0.94656756  0.14119162  0.13209514     0.00400
C775        C  0.92959954  0.13956663  0.12579843    -0.22500
C776        C  0.92994451  0.12676358  0.11298146    -0.22700
C777        C  0.94705791  0.12082151  0.11196849     0.00300
H778        H  0.91821036  0.14698019  0.12983861     0.14000
H779        H  0.91890684  0.12236956  0.10521567     0.14100
N780        N  0.11880725  0.11824100  0.29399848    -0.02200
C781        C  0.10730856  0.12673939  0.30452999     0.00400
C782        C  0.10801896  0.11953894  0.32121004    -0.22500
C783        C  0.12017731  0.10608617  0.32064771    -0.22700
C784        C  0.12660480  0.10568769  0.30374696     0.00300
H785        H  0.10036467  0.12336607  0.33251130     0.14000
H786        H  0.12400000  0.09768411  0.33140888     0.14100
N787        N  0.12944602  0.29257724  0.12865289    -0.02200
C788        C  0.11931935  0.30309482  0.13878038     0.00400
C789        C  0.12415608  0.32036275  0.13621191    -0.22500
C790        C  0.13759330  0.32030503  0.12402762    -0.22700
C791        C  0.14074494  0.30298410  0.11972266     0.00300
H792        H  0.11852667  0.33177904  0.14246132     0.14000
H793        H  0.14446213  0.33166497  0.11906311     0.14100
N794        N  0.29693381  0.12393236  0.12432830    -0.02200
C795        C  0.30723564  0.11300774  0.13372142     0.00400
C796        C  0.32450098  0.11482009  0.12851892    -0.22500
C797        C  0.32468897  0.12742622  0.11552069    -0.22700
C798        C  0.30747106  0.13270515  0.11306368     0.00300
H799        H  0.33571643  0.10773632  0.13354985     0.14000
H800        H  0.33613731  0.13197066  0.10850989     0.14100
Zn801      Zn  0.88772959  0.35918214  0.36296495     1.49700
Zn802      Zn  0.88984981  0.38828062  0.39300409     1.49400
Zn803      Zn  0.85873884  0.38891228  0.36498050     1.49100
Zn804      Zn  0.85977486  0.35884524  0.39395255     1.49500
O805        O  0.87406583  0.37386100  0.37878174    -1.82900
O806        O  0.91370202  0.36339147  0.36584706    -0.73500
O807        O  0.88590417  0.41433612  0.38830792    -0.73300
O808        O  0.86265586  0.38566851  0.33894303    -0.72800
O809        O  0.91499733  0.38218902  0.38811508    -0.73500
O810        O  0.88140055  0.36340234  0.33789371    -0.73100
O811        O  0.86258419  0.41420170  0.37073780    -0.73700
O812        O  0.83397412  0.36133323  0.38879539    -0.73100
O813        O  0.88617591  0.38342350  0.41873021    -0.73900
O814        O  0.83357398  0.38340192  0.36979058    -0.73200
O815        O  0.86376122  0.36473773  0.41913546    -0.73700
O816        O  0.86590639  0.33338773  0.39107428    -0.73600
O817        O  0.88342099  0.33382061  0.36780118    -0.73400
C818        C  0.92243088  0.37239440  0.37686612     0.78400
C819        C  0.87409265  0.42238299  0.37961399     0.78900
C820        C  0.87166897  0.37459463  0.33031703     0.77800
C821        C  0.82569745  0.37203330  0.37905715     0.78200
C822        C  0.87513906  0.37403572  0.42698998     0.79300
C823        C  0.87502969  0.32554408  0.37955138     0.78400
N824        N  0.88049225  0.38235630  0.20922864    -0.02200
C825        C  0.87301970  0.39386078  0.19790816     0.00400
C826        C  0.88156753  0.39348721  0.18195438    -0.22500
C827        C  0.89468498  0.38115957  0.18343412    -0.22700
C828        C  0.89362883  0.37445589  0.20022465     0.00300
H829        H  0.87852909  0.40124347  0.17047930     0.14000
H830        H  0.90397031  0.37747577  0.17336611     0.14100
N831        N  0.87305254  0.20460731  0.37086014    -0.02200
C832        C  0.85963992  0.19548075  0.37808646     0.00400
C833        C  0.85790294  0.17942100  0.36986310    -0.22500
C834        C  0.87088399  0.17856992  0.35728380    -0.22700
C835        C  0.88005562  0.19413574  0.35828064     0.00300
H836        H  0.84811663  0.16951778  0.37254346     0.14000
H837        H  0.87329349  0.16782594  0.34834358     0.14100
N838        N  0.04388662  0.37631519  0.37821151    -0.02200
C839        C  0.05468050  0.36777334  0.36699110     0.00400
C840        C  0.07155496  0.37410808  0.36844251    -0.22500
C841        C  0.07114694  0.38698416  0.38114084    -0.22700
C842        C  0.05392611  0.38831577  0.38680881     0.00300
H843        H  0.08290104  0.36989058  0.36104927     0.14000
H844        H  0.08214311  0.39494890  0.38525057     0.14100
N845        N  0.87270589  0.37689884  0.54827260    -0.02200
C846        C  0.86242919  0.36768612  0.55944476     0.00400
C847        C  0.86514828  0.37322301  0.57645749    -0.22500
C848        C  0.87770278  0.38624348  0.57569348    -0.22700
C849        C  0.88196353  0.38846285  0.55820083     0.00300
H850        H  0.85884940  0.36824224  0.58813869     0.14000
H851        H  0.88285366  0.39358502  0.58669319     0.14100
N852        N  0.87304030  0.54417555  0.37542346    -0.02200
C853        C  0.86445430  0.55385394  0.36325603     0.00400
C854        C  0.86905032  0.57128918  0.36476390    -0.22500
C855        C  0.88066744  0.57241611  0.37859363    -0.22700
C856        C  0.88288326  0.55557998  0.38497202     0.00300
H857        H  0.86435115  0.58203183  0.35679436     0.14000
H858        H  0.88670616  0.58427206  0.38349896     0.14100
N859        N  0.70423490  0.37529833  0.37455512    -0.02200
C860        C  0.69356966  0.38720564  0.36665465     0.00400
C861        C  0.67722715  0.38717087  0.37446162    -0.22500
C862        C  0.67775783  0.37472130  0.38751401    -0.22700
C863        C  0.69439543  0.36756558  0.38720309     0.00300
H864        H  0.66621484  0.39550176  0.37121017     0.14000
H865        H  0.66726953  0.37149228  0.39649324     0.14100
Zn866      Zn  0.01602583  0.23680702  0.23721454     1.49700
Zn867      Zn  0.97659659  0.24759994  0.24625054     1.49400
Zn868      Zn  0.00579551  0.24580268  0.27728164     1.49100
Zn869      Zn  0.00748728  0.27631430  0.24814584     1.49500
O870        O  0.00143198  0.25162832  0.25234196    -1.82900
O871        O  0.00126054  0.22148150  0.22149665    -0.73500
O872        O  0.96382231  0.23708130  0.26695083    -0.73300
O873        O  0.02428423  0.22636351  0.27929546    -0.72800
O874        O  0.97385416  0.23023470  0.22603097    -0.73500
O875        O  0.03150198  0.22085671  0.25157465    -0.73100
O876        O  0.98333244  0.23695355  0.28870221    -0.73700
O877        O  0.01675227  0.28759087  0.27024790    -0.73100
O878        O  0.96457087  0.27053788  0.23971727    -0.73900
O879        O  0.01438740  0.26727028  0.29100328    -0.73200
O880        O  0.98617488  0.29014355  0.24011418    -0.73700
O881        O  0.02629575  0.27880063  0.22963396    -0.73600
O882        O  0.03151946  0.25135218  0.22142337    -0.73400
C883        C  0.98493673  0.22056487  0.21810096     0.78400
C884        C  0.96798042  0.23385835  0.28281039     0.78900
C885        C  0.03320851  0.21792268  0.26792488     0.77800
C886        C  0.01843971  0.28273871  0.28613504     0.78200
C887        C  0.97012924  0.28616553  0.23763362     0.79300
C888        C  0.03434537  0.26772903  0.22009094     0.78400
C889        C  0.04587435  0.33999373  0.33129752     0.31000
C890        C  0.04565226  0.33482519  0.31364376    -0.35300
C891        C  0.03724221  0.31889298  0.30995581     0.17000
C892        C  0.02977061  0.30854391  0.32275740     0.22800
C893        C  0.02984363  0.31381029  0.34043342    -0.33400
C894        C  0.03801415  0.32991961  0.34409389     0.16900
O895        O  0.05292412  0.35447259  0.33762479    -0.25400
C896        C  0.04928857  0.35383746  0.35466265     0.06700
C897        C  0.04001362  0.33888572  0.35944733    -0.30300
O898        O  0.02249202  0.29419913  0.31625930    -0.22200
C899        C  0.02517339  0.29551782  0.29904538    -0.02200
C900        C  0.03426420  0.31063126  0.29442295    -0.16600
H901        H  0.05147443  0.34277629  0.30344874     0.21400
H902        H  0.02377057  0.30600403  0.35059223     0.19800
H903        H  0.03550674  0.33517168  0.37237139     0.19700
H904        H  0.03798270  0.31497313  0.28144163     0.15600
C905        C  0.90965404  0.20301416  0.32411442     0.31000
C906        C  0.91514986  0.20459056  0.30661887    -0.35300
C907        C  0.93115903  0.21326529  0.30392794     0.17000
C908        C  0.94126777  0.21965345  0.31752442     0.22800
C909        C  0.93574753  0.21811661  0.33501401    -0.33400
C910        C  0.91959118  0.20971912  0.33768575     0.16900
O911        O  0.89473189  0.19614651  0.32956819    -0.25400
C912        C  0.89500148  0.19871122  0.34682966     0.06700
C913        C  0.91019298  0.20700270  0.35261923    -0.30300
O914        O  0.95566877  0.22750626  0.31198952    -0.22200
C915        C  0.95466379  0.22633737  0.29460293    -0.02200
C916        C  0.93967626  0.21763161  0.28885863    -0.16600
H917        H  0.90728905  0.19976014  0.29582574     0.21400
H918        H  0.94333790  0.22344221  0.34576704     0.19800
H919        H  0.91355985  0.21087701  0.36585373     0.19700
H920        H  0.93563452  0.21498320  0.27550971     0.15600
C921        C  0.91510943  0.33751801  0.21730836     0.31000
C922        C  0.91655558  0.32040012  0.22388117    -0.35300
C923        C  0.93367594  0.31414637  0.22651029     0.17000
C924        C  0.94837686  0.32412712  0.22312646     0.22800
C925        C  0.94693265  0.34120293  0.21642829    -0.33400
C926        C  0.92982078  0.34737131  0.21359387     0.16900
O927        O  0.90040560  0.34582868  0.21352297    -0.25400
C928        C  0.90578194  0.36117588  0.20725708     0.06700
C929        C  0.92393297  0.36281144  0.20684461    -0.30300
O930        O  0.96309132  0.31570406  0.22664669    -0.22200
C931        C  0.95777474  0.30004387  0.23221181    -0.02200
C932        C  0.93959440  0.29833240  0.23234443    -0.16600
H933        H  0.90512652  0.31244899  0.22660049     0.21400
H934        H  0.95836067  0.34907565  0.21348218     0.19800
H935        H  0.93162070  0.37375244  0.20212831     0.19700
H936        H  0.93188067  0.28710118  0.23626914     0.15600
C937        C  0.88199534  0.46762280  0.38005946     0.31000
C938        C  0.89206637  0.48296927  0.38085796    -0.35300
C939        C  0.88292210  0.49870042  0.37835362     0.17000
C940        C  0.86505628  0.49936291  0.37548830     0.22800
C941        C  0.85503424  0.48400466  0.37433266    -0.33400
C942        C  0.86421756  0.46825030  0.37664207     0.16900
O943        O  0.88783930  0.45146468  0.38199607    -0.25400
C944        C  0.87365239  0.44162139  0.37955790     0.06700
C945        C  0.85861072  0.45135355  0.37611169    -0.30300
O946        O  0.85915347  0.51553958  0.37408525    -0.22200
C947        C  0.87343311  0.52533505  0.37612285    -0.02200
C948        C  0.88866212  0.51554017  0.37834609    -0.16600
H949        H  0.90605060  0.48267395  0.38329465     0.21400
H950        H  0.84105731  0.48431606  0.37184861     0.19800
H951        H  0.84546762  0.44662382  0.37356559     0.19700
H952        H  0.90200959  0.52014292  0.37978664     0.15600
C953        C  0.88285453  0.37392143  0.50405863     0.31000
C954        C  0.89333123  0.37556803  0.48905526    -0.35300
C955        C  0.88452581  0.37420190  0.47297262     0.17000
C956        C  0.86675473  0.37089741  0.47176937     0.22800
C957        C  0.85630519  0.36925806  0.48673316    -0.33400
C958        C  0.86500811  0.37112722  0.50276084     0.16900
O959        O  0.88807975  0.37590373  0.52041098    -0.25400
C960        C  0.87331927  0.37465260  0.52958922     0.06700
C961        C  0.85856272  0.37168107  0.51929494    -0.30300
O962        O  0.86117272  0.37033048  0.45546849    -0.22200
C963        C  0.87546434  0.37365527  0.44611734    -0.02200
C964        C  0.89040683  0.37619143  0.45625633    -0.16600
H965        H  0.90723325  0.37830952  0.48986668     0.21400
H966        H  0.84228140  0.36721707  0.48592344     0.19800
H967        H  0.84498674  0.37078234  0.52329108     0.19700
H968        H  0.90362548  0.37898272  0.45191914     0.15600
C969        C  0.87524464  0.24818756  0.38368793     0.31000
C970        C  0.87285556  0.26263574  0.39483722    -0.35300
C971        C  0.87455799  0.27916311  0.38697140     0.17000
C972        C  0.87859436  0.28122940  0.36944503     0.22800
C973        C  0.88085900  0.26685094  0.35834473    -0.33400
C974        C  0.87898148  0.25042314  0.36613616     0.16900
O975        O  0.87330622  0.23155802  0.38790109    -0.25400
C976        C  0.87592653  0.22312531  0.37285382     0.06700
C977        C  0.87931937  0.23426100  0.35885295    -0.30300
O978        O  0.87945917  0.29773803  0.36472228    -0.22200
C979        C  0.87573349  0.30643242  0.37931425    -0.02200
C980        C  0.87248656  0.29561262  0.39362183    -0.16600
H981        H  0.86952341  0.26109924  0.40854059     0.21400
H982        H  0.88358477  0.26837862  0.34450481     0.19800
H983        H  0.88083005  0.23107631  0.34511741     0.19700
H984        H  0.86913709  0.29933528  0.40689817     0.15600
C985        C  0.86877364  0.38424078  0.28559793     0.31000
C986        C  0.86638754  0.39490786  0.27084724    -0.35300
C987        C  0.87100917  0.38743600  0.25471424     0.17000
C988        C  0.87739582  0.37060375  0.25313587     0.22800
C989        C  0.87988681  0.35996401  0.26789186    -0.33400
C990        C  0.87541094  0.36748114  0.28404993     0.16900
O991        O  0.86603611  0.38881935  0.30203658    -0.25400
C992        C  0.87115376  0.37486585  0.31111561     0.06700
C993        C  0.87707824  0.36119009  0.30062298    -0.30300
O994        O  0.88126995  0.36646948  0.23681896    -0.22200
C995        C  0.87724275  0.38081089  0.22778806    -0.02200
C996        C  0.87104388  0.39438276  0.23834298    -0.16600
H997        H  0.86159499  0.40820877  0.27190578     0.21400
H998        H  0.88527663  0.34688876  0.26688010     0.19800
H999        H  0.88225855  0.34862503  0.30466843     0.19700
H1000       H  0.86775758  0.40768277  0.23479374     0.15600
C1001       C  0.74848232  0.36444971  0.37679848     0.31000
C1002       C  0.76319379  0.35478449  0.38223429    -0.35300
C1003       C  0.77950745  0.36298347  0.37985912     0.17000
C1004       C  0.78112869  0.37939281  0.37242389     0.22800
C1005       C  0.76648620  0.38902039  0.36714690    -0.33400
C1006       C  0.75027634  0.38094242  0.36969652     0.16900
O1007       O  0.73191175  0.35994340  0.37872684    -0.25400
C1008       C  0.72301894  0.37375071  0.37279686     0.06700
C1009       C  0.73390364  0.38726540  0.36718977    -0.30300
O1010       O  0.79748537  0.38461975  0.37130074    -0.22200
C1011       C  0.80655126  0.37151584  0.37824837    -0.02200
C1012       C  0.79610166  0.35767851  0.38391363    -0.16600
H1013       H  0.76197891  0.34198965  0.38821686     0.21400
H1014       H  0.76764084  0.40205687  0.36169370     0.19800
H1015       H  0.73061518  0.40040436  0.36314146     0.19700
H1016       H  0.80016294  0.34547417  0.38988030     0.15600
C1017       C  0.99957251  0.37067728  0.36990550     0.31000
C1018       C  0.98458403  0.36860454  0.35946381    -0.35300
C1019       C  0.96851145  0.36924548  0.36830345     0.17000
C1020       C  0.96729723  0.37192942  0.38616607     0.22800
C1021       C  0.98231555  0.37341606  0.39668784    -0.33400
C1022       C  0.99839402  0.37262873  0.38786043     0.16900
O1023       O  0.01582365  0.37161560  0.36423240    -0.25400
C1024       C  0.02517345  0.37417646  0.37872918     0.06700
C1025       C  0.01509408  0.37442105  0.39390849    -0.30300
O1026       O  0.95094860  0.37338586  0.39150455    -0.22200
C1027       C  0.94159153  0.37131300  0.37693177    -0.02200
C1028       C  0.95178298  0.36851444  0.36210404    -0.16600
H1029       H  0.98538812  0.36708958  0.34537686     0.21400
H1030       H  0.98150808  0.37554606  0.41069521     0.19800
H1031       H  0.01937243  0.37600203  0.40734691     0.19700
H1032       H  0.94749068  0.36686974  0.34867277     0.15600
C1033       C  0.08751346  0.29801985  0.17201124     0.31000
C1034       C  0.07745489  0.30296664  0.18663569    -0.35300
C1035       C  0.06591914  0.29019761  0.19320068     0.17000
C1036       C  0.06450170  0.27368034  0.18596168     0.22800
C1037       C  0.07437591  0.26884085  0.17125476    -0.33400
C1038       C  0.08579666  0.28162068  0.16467625     0.16900
O1039       O  0.09932108  0.30769977  0.16384185    -0.25400
C1040       C  0.10531735  0.29733348  0.15110015     0.06700
C1041       C  0.09706083  0.28101828  0.15094332    -0.30300
O1042       O  0.05327547  0.26364259  0.19441695    -0.22200
C1043       C  0.04725160  0.27389090  0.20716867    -0.02200
C1044       C  0.05459798  0.29059253  0.20702348    -0.16600
H1045       H  0.07861086  0.31580732  0.19253862     0.21400
H1046       H  0.07333792  0.25595266  0.16542615     0.19800
H1047       H  0.09861674  0.27015627  0.14205413     0.19700
H1048       H  0.05215215  0.30132659  0.21596935     0.15600
C1049       C  0.08252442  0.15947627  0.28312528     0.31000
C1050       C  0.07668218  0.16961078  0.26891304    -0.35300
C1051       C  0.06456761  0.18290016  0.27286329     0.17000
C1052       C  0.05859113  0.18604609  0.28964423     0.22800
C1053       C  0.06442936  0.17587759  0.30385409    -0.33400
C1054       C  0.07652630  0.16256058  0.29989245     0.16900
O1055       O  0.09394452  0.14649347  0.28244203    -0.25400
C1056       C  0.09534620  0.14110946  0.29899075     0.06700
C1057       C  0.08470851  0.15064110  0.31039804    -0.30300
O1058       O  0.04704351  0.19895732  0.29028190    -0.22200
C1059       C  0.04557381  0.20414900  0.27367337    -0.02200
C1060       C  0.05621999  0.19462218  0.26229227    -0.16600
H1061       H  0.08124551  0.16727376  0.25568098     0.21400
H1062       H  0.05981242  0.17814738  0.31707633     0.19800
H1063       H  0.08334983  0.14918632  0.32443861     0.19700
H1064       H  0.05739397  0.19595081  0.24821368     0.15600
C1065       C  0.96254189  0.19405339  0.18757369     0.31000
C1066       C  0.94816874  0.18774627  0.17787856    -0.35300
C1067       C  0.95177738  0.17428491  0.16580915     0.17000
C1068       C  0.96834868  0.16743654  0.16349248     0.22800
C1069       C  0.98270209  0.17373349  0.17315779    -0.33400
C1070       C  0.97912136  0.18722514  0.18514733     0.16900
O1071       O  0.96224547  0.20665677  0.19948597    -0.25400
C1072       C  0.97888302  0.20794133  0.20470551     0.06700
C1073       C  0.98992417  0.19615495  0.19620770    -0.30300
O1074       O  0.96876667  0.15495883  0.15150604    -0.22200
C1075       C  0.95225695  0.15377101  0.14591185    -0.02200
C1076       C  0.94111383  0.16551186  0.15442967    -0.16600
H1077       H  0.93509821  0.19301410  0.17956839     0.21400
H1078       H  0.99578669  0.16852107  0.17139378     0.19800
H1079       H  0.00391050  0.19443117  0.19794289     0.19700
H1080       H  0.92717663  0.16737578  0.15252255     0.15600
C1081       C  0.13197728  0.24804605  0.13562708     0.31000
C1082       C  0.13662275  0.23265638  0.14443242    -0.35300
C1083       C  0.13175008  0.21700813  0.13621268     0.17000
C1084       C  0.12271826  0.21651204  0.12051873     0.22800
C1085       C  0.11810815  0.23191810  0.11166636    -0.33400
C1086       C  0.12319237  0.24758463  0.11976071     0.16900
O1087       O  0.13535293  0.26410532  0.14089314    -0.25400
C1088       C  0.12879521  0.27393416  0.12813840     0.06700
C1089       C  0.12108610  0.26450569  0.11461145    -0.30300
O1090       O  0.11956553  0.20040153  0.11519992    -0.22200
C1091       C  0.12680363  0.19050391  0.12758029    -0.02200
C1092       C  0.13457972  0.20011014  0.14097138    -0.16600
H1093       H  0.14367545  0.23287037  0.15675315     0.21400
H1094       H  0.11119684  0.23169718  0.09926670     0.19800
H1095       H  0.11479898  0.26944631  0.10289402     0.19700
H1096       H  0.14135543  0.19532000  0.15248720     0.15600
C1097       C  0.12254544  0.99762650  0.12118004     0.31000
C1098       C  0.11246740  0.01241838  0.12512552    -0.35300
C1099       C  0.12060755  0.02858104  0.12232609     0.17000
C1100       C  0.13744143  0.03015440  0.11585817     0.22800
C1101       C  0.14758358  0.01531110  0.11196433    -0.33400
C1102       C  0.13950421  0.99908425  0.11496323     0.16900
O1103       O  0.11750338  0.98126261  0.12292479    -0.25400
C1104       C  0.13145741  0.97215607  0.11793339     0.06700
C1105       C  0.14556045  0.98243135  0.11278376    -0.30300
O1106       O  0.14239251  0.04663484  0.11431983    -0.22200
C1107       C  0.12859383  0.05562889  0.12005843    -0.02200
C1108       C  0.11468620  0.04508612  0.12521339    -0.16600
H1109       H  0.09923818  0.01138863  0.13015917     0.21400
H1110       H  0.16086360  0.01634066  0.10707314     0.19800
H1111       H  0.15824644  0.97822876  0.10802748     0.19700
H1112       H  0.10207258  0.04904085  0.13038193     0.15600
C1113       C  0.03389639  0.13286647  0.12205617     0.31000
C1114       C  0.01933525  0.14297953  0.11735095    -0.35300
C1115       C  0.00295907  0.13572620  0.12121943     0.17000
C1116       C  0.00099224  0.11953772  0.12908275     0.22800
C1117       C  0.01559782  0.10944214  0.13388408    -0.33400
C1118       C  0.03202415  0.11678629  0.13012235     0.16900
O1119       O  0.05040238  0.13710913  0.11947551    -0.25400
C1120       C  0.05926472  0.12366283  0.12607802     0.06700
C1121       C  0.04854656  0.11061238  0.13293491    -0.30300
O1122       O  0.98439609  0.11519216  0.13115170    -0.22200
C1123       C  0.97580716  0.12887202  0.12466239    -0.02200
C1124       C  0.98657492  0.14201569  0.11826825    -0.16600
H1125       H  0.02068754  0.15560878  0.11105132     0.21400
H1126       H  0.01424800  0.09675303  0.14005959     0.19800
H1127       H  0.05237618  0.09833228  0.13890237     0.19700
H1128       H  0.98280651  0.15425306  0.11218268     0.15600
C1129       C  0.12838175  0.12643030  0.21813531     0.31000
C1130       C  0.13169795  0.13571929  0.23366222    -0.35300
C1131       C  0.12621130  0.12759150  0.24917600     0.17000
C1132       C  0.11822128  0.11133810  0.24934917     0.22800
C1133       C  0.11487704  0.10209814  0.23385461    -0.33400
C1134       C  0.12016791  0.11031256  0.21836676     0.16900
O1135       O  0.13200489  0.13171428  0.20211666    -0.25400
C1136       C  0.12590387  0.11887230  0.19201468     0.06700
C1137       C  0.11840698  0.10521116  0.20139454    -0.30300
O1138       O  0.11438339  0.10604193  0.26526695    -0.22200
C1139       C  0.11974251  0.11917220  0.27533577    -0.02200
C1140       C  0.12729380  0.13293798  0.26618394    -0.16600
H1141       H  0.13796690  0.14844059  0.23362975     0.21400
H1142       H  0.10847601  0.08944130  0.23387422     0.19800
H1143       H  0.11236036  0.09338098  0.19640900     0.19700
H1144       H  0.13293365  0.14488392  0.27134776     0.15600
C1145       C  0.13125938  0.11990814  0.03114722     0.31000
C1146       C  0.14001599  0.11490410  0.01581986    -0.35300
C1147       C  0.13190065  0.11962481  0.00006206     0.17000
C1148       C  0.11613815  0.12855444  0.99938961     0.22800
C1149       C  0.10734261  0.13351648  0.01474735    -0.33400
C1150       C  0.11557568  0.12893551  0.03053215     0.16900
O1151       O  0.13671414  0.11714439  0.04728259    -0.25400
C1152       C  0.12444461  0.12459167  0.05714640     0.06700
C1153       C  0.11096134  0.13215405  0.04745919    -0.30300
O1154       O  0.11122659  0.13209946  0.98320638    -0.22200
C1155       C  0.12408607  0.12540853  0.97356252    -0.02200
C1156       C  0.13724844  0.11742140  0.98322835    -0.16600
H1157       H  0.15244084  0.10805253  0.01616269     0.21400
H1158       H  0.09511519  0.14071297  0.01441185     0.19800
H1159       H  0.09948006  0.13900894  0.05220998     0.19700
H1160       H  0.14913697  0.11129567  0.97849722     0.15600
C1161       C  0.22037472  0.12039856  0.11765616     0.31000
C1162       C  0.23546238  0.11454149  0.10899393    -0.35300
C1163       C  0.25145202  0.11933029  0.11663621     0.17000
C1164       C  0.25255137  0.12919384  0.13180743     0.22800
C1165       C  0.23744271  0.13512705  0.14042185    -0.33400
C1166       C  0.22143538  0.13036249  0.13273775     0.16900
O1167       O  0.20407796  0.11721395  0.11292942    -0.25400
C1168       C  0.19456896  0.12528525  0.12509436     0.06700
C1169       C  0.20464876  0.13373198  0.13773782    -0.30300
O1170       O  0.26888291  0.13207807  0.13667727    -0.22200
C1171       C  0.27820389  0.12401334  0.12439214    -0.02200
C1172       C  0.26817518  0.11583381  0.11161551    -0.16600
H1173       H  0.23477764  0.10673852  0.09715689     0.21400
H1174       H  0.23812075  0.14286836  0.15229838     0.19800
H1175       H  0.20023794  0.14107394  0.14905161     0.19700
H1176       H  0.27262327  0.10848686  0.10032489     0.15600
C1177       C  0.17192086  0.96271886  0.15526412     0.31000
C1178       C  0.18627377  0.97368437  0.15872167    -0.35300
C1179       C  0.19236069  0.97381234  0.17607414     0.17000
C1180       C  0.18466063  0.96407675  0.18922480     0.22800
C1181       C  0.17043178  0.95292780  0.18571107    -0.33400
C1182       C  0.16454113  0.95256409  0.16827354     0.16900
O1183       O  0.16403913  0.96070983  0.14000536    -0.25400
C1184       C  0.15157729  0.94895630  0.14319584     0.06700
C1185       C  0.15135162  0.94331508  0.16053642    -0.30300
O1186       O  0.19233851  0.96642976  0.20456757    -0.22200
C1187       C  0.20527223  0.97762177  0.20112542    -0.02200
C1188       C  0.20595475  0.98259814  0.18360375    -0.16600
H1189       H  0.19229987  0.98154338  0.14857344     0.21400
H1190       H  0.16441198  0.94505065  0.19584805     0.19800
H1191       H  0.14248975  0.93406058  0.16661040     0.19700
H1192       H  0.21509003  0.99147777  0.17737272     0.15600
C1193       C  0.18643816  0.06424114  0.27583189     0.31000
C1194       C  0.18062568  0.08168226  0.27679146    -0.35300
C1195       C  0.16442182  0.08440155  0.28510994     0.17000
C1196       C  0.15473014  0.07094259  0.29231342     0.22800
C1197       C  0.16039715  0.05347298  0.29108408    -0.33400
C1198       C  0.17645742  0.05072079  0.28249941     0.16900
O1199       O  0.20125853  0.05870851  0.26875911    -0.25400
C1200       C  0.20066071  0.04137974  0.27070620     0.06700
C1201       C  0.18547534  0.03568656  0.27907480    -0.30300
O1202       O  0.14023082  0.07654112  0.29997430    -0.22200
C1203       C  0.14048474  0.09377385  0.29733964    -0.02200
C1204       C  0.15518013  0.09938025  0.28811740    -0.16600
H1205       H  0.18821253  0.09239517  0.27143195     0.21400
H1206       H  0.15282197  0.04276479  0.29646765     0.19800
H1207       H  0.18175049  0.02240387  0.28234627     0.19700
H1208       H  0.15865881  0.11262406  0.28444544     0.15600
C1209       C  0.28654414  0.08957325  0.16760845     0.31000
C1210       C  0.27489213  0.08681054  0.18160062    -0.35300
C1211       C  0.27561884  0.07024132  0.18956877     0.17000
C1212       C  0.28676342  0.05716990  0.18388429     0.22800
C1213       C  0.29862455  0.06004247  0.17013105    -0.33400
C1214       C  0.29814611  0.07670445  0.16241474     0.16900
O1215       O  0.28800564  0.10398369  0.15815510    -0.25400
C1216       C  0.30090100  0.10037685  0.14695633     0.06700
C1217       C  0.30777078  0.08364095  0.14909259    -0.30300
O1218       O  0.28473290  0.04243833  0.19267335    -0.22200
C1219       C  0.27237452  0.04619539  0.20438850    -0.02200
C1220       C  0.26628934  0.06333943  0.20316588    -0.16600
H1221       H  0.26586436  0.09685841  0.18593960     0.21400
H1222       H  0.30756990  0.04995680  0.16571023     0.19800
H1223       H  0.31814483  0.07741338  0.14168344     0.19700
H1224       H  0.25613320  0.06960223  0.21084374     0.15600
C1225       C  0.33651618  0.03319220  0.33358265     0.31000
C1226       C  0.32822160  0.01863825  0.32595235    -0.35300
C1227       C  0.31536976  0.02228476  0.31326620     0.17000
C1228       C  0.31088806  0.03909926  0.30838023     0.22800
C1229       C  0.31922162  0.05368453  0.31601701    -0.33400
C1230       C  0.33211082  0.05002080  0.32871966     0.16900
O1231       O  0.34883526  0.03277167  0.34576790    -0.25400
C1232       C  0.35247587  0.04956412  0.34883325     0.06700
C1233       C  0.34240378  0.06086478  0.33855623    -0.30300
O1234       O  0.29842382  0.03940152  0.29627570    -0.22200
C1235       C  0.29491152  0.02252904  0.29336032    -0.02200
C1236       C  0.30510322  0.01134918  0.30357665    -0.16600
H1237       H  0.33154790  0.00536328  0.32967039     0.21400
H1238       H  0.31587445  0.06696457  0.31234264     0.19800
H1239       H  0.34257937  0.07503524  0.33836317     0.19700
H1240       H  0.30493748  0.99717224  0.30383518     0.15600
C1241       C  0.33056612  0.91529867  0.19830593     0.31000
C1242       C  0.31648199  0.92617549  0.19335409    -0.35300
C1243       C  0.30894330  0.93633003  0.20680935     0.17000
C1244       C  0.31482070  0.93571051  0.22391331     0.22800
C1245       C  0.32887941  0.92494043  0.22879252    -0.33400
C1246       C  0.33640223  0.91489149  0.21538499     0.16900
O1247       O  0.33972612  0.90479653  0.18797560    -0.25400
C1248       C  0.35155200  0.89747450  0.19862353     0.06700
C1249       C  0.35009800  0.90353311  0.21581639    -0.30300
O1250       O  0.30601716  0.94624458  0.23441049    -0.22200
C1251       C  0.29434394  0.95388538  0.22395380    -0.02200
C1252       C  0.29553880  0.94822540  0.20659735    -0.16600
H1253       H  0.31179997  0.92675085  0.17997351     0.21400
H1254       H  0.33367225  0.92446823  0.24213934     0.19800
H1255       H  0.35808186  0.90065463  0.22711863     0.19700
H1256       H  0.28770096  0.95229814  0.19549022     0.15600
C1257       C  0.22896835  0.93126416  0.31051413     0.31000
C1258       C  0.23405890  0.91737922  0.32146035    -0.35300
C1259       C  0.22076418  0.90993760  0.33178286     0.17000
C1260       C  0.20364720  0.91567158  0.33137266     0.22800
C1261       C  0.19847882  0.92937375  0.32022285    -0.33400
C1262       C  0.21176714  0.93684948  0.30990613     0.16900
O1263       O  0.23933581  0.94048700  0.30016226    -0.25400
C1264       C  0.22860779  0.95207085  0.29271451     0.06700
C1265       C  0.21129084  0.95035379  0.29824686    -0.30300
O1266       O  0.19351488  0.90711003  0.34248053    -0.22200
C1267       C  0.20425409  0.89570327  0.35023393    -0.02200
C1268       C  0.22138075  0.89682985  0.34383778    -0.16600
H1269       H  0.24749644  0.91286235  0.32208815     0.21400
H1270       H  0.18508495  0.93403600  0.31978823     0.19800
H1271       H  0.20004926  0.95812475  0.29442797     0.19700
H1272       H  0.23281027  0.88923028  0.34717215     0.15600
C1273       C  0.50259947  0.87052552  0.37913302     0.31000
C1274       C  0.48727142  0.86550276  0.38778225    -0.35300
C1275       C  0.47160683  0.87100490  0.38007384     0.17000
C1276       C  0.47097881  0.88084128  0.36490282     0.22800
C1277       C  0.48637871  0.88580296  0.35614541    -0.33400
C1278       C  0.50212853  0.88022205  0.36383647     0.16900
O1279       O  0.51863309  0.86701045  0.38429548    -0.25400
C1280       C  0.52852120  0.87444168  0.37211321     0.06700
C1281       C  0.51912712  0.88283734  0.35899111    -0.30300
O1282       O  0.45477036  0.88443020  0.36004974    -0.22200
C1283       C  0.44502122  0.87670020  0.37226269    -0.02200
C1284       C  0.45479561  0.86818061  0.38502673    -0.16600
H1285       H  0.48754885  0.85785493  0.39972467     0.21400
H1286       H  0.48609939  0.89345512  0.34420929     0.19800
H1287       H  0.52411075  0.88999378  0.34781818     0.19700
H1288       H  0.45015621  0.86082827  0.39623267     0.15600
C1289       C  0.38367829  0.86880969  0.46538876     0.31000
C1290       C  0.39051375  0.86091877  0.48054826    -0.35300
C1291       C  0.38426475  0.86750997  0.49653634     0.17000
C1292       C  0.37214409  0.88095375  0.49745951     0.22800
C1293       C  0.36532534  0.88877969  0.48235228    -0.33400
C1294       C  0.37154293  0.88218989  0.46643163     0.16900
O1295       O  0.38756204  0.86472163  0.44905253    -0.25400
C1296       C  0.37776165  0.87563035  0.43959502     0.06700
C1297       C  0.36753093  0.88677510  0.44971400    -0.30300
O1298       O  0.36785947  0.88494507  0.51365607    -0.22200
C1299       C  0.37730237  0.87390004  0.52318309    -0.02200
C1300       C  0.38782668  0.86273394  0.51338907    -0.16600
H1301       H  0.39995119  0.85034534  0.47991675     0.21400
H1302       H  0.35574649  0.89922708  0.48297658     0.19800
H1303       H  0.35844865  0.89677231  0.44536707     0.19700
H1304       H  0.39653408  0.85254392  0.51801955     0.15600
C1305       C  0.28408061  0.87967160  0.38030246     0.31000
C1306       C  0.26885748  0.88758426  0.38687595    -0.35300
C1307       C  0.25297397  0.87995433  0.38167608     0.17000
C1308       C  0.25214173  0.86542915  0.37085868     0.22800
C1309       C  0.26735019  0.85750154  0.36434298    -0.33400
C1310       C  0.28320299  0.86522881  0.36942432     0.16900
O1311       O  0.30032155  0.88485106  0.38314655    -0.25400
C1312       C  0.30991662  0.87361086  0.37391058     0.06700
C1313       C  0.29997326  0.86112631  0.36510546    -0.30300
O1314       O  0.23592608  0.86083256  0.36713939    -0.22200
C1315       C  0.22637303  0.87262830  0.37562513    -0.02200
C1316       C  0.23613391  0.88480905  0.38496030    -0.16600
H1317       H  0.26935502  0.89905731  0.39520913     0.21400
H1318       H  0.26684467  0.84629112  0.35565815     0.19800
H1319       H  0.30446725  0.85060168  0.35671575     0.19700
H1320       H  0.23146645  0.89580040  0.39261033     0.15600
C1321       C  0.38643931  0.78236018  0.37821143     0.31000
C1322       C  0.39466392  0.76752249  0.38519604    -0.35300
C1323       C  0.38709695  0.75140407  0.38077628     0.17000
C1324       C  0.37240149  0.74995803  0.37023336     0.22800
C1325       C  0.36432174  0.76479207  0.36307233    -0.33400
C1326       C  0.37191803  0.78090642  0.36747228     0.16900
O1327       O  0.39091922  0.79876398  0.38113134    -0.25400
C1328       C  0.37916433  0.80789200  0.37206908     0.06700
C1329       C  0.36707285  0.79748891  0.36325079    -0.30300
O1330       O  0.36725044  0.73360624  0.36821197    -0.22200
C1331       C  0.37884252  0.72462036  0.37757510    -0.02200
C1332       C  0.39156525  0.73487030  0.38556187    -0.16600
H1333       H  0.40601034  0.76849021  0.39368132     0.21400
H1334       H  0.35278307  0.76385378  0.35484868     0.19800
H1335       H  0.35607996  0.80158254  0.35525176     0.19700
H1336       H  0.40234433  0.73069061  0.39379329     0.15600
C1337       C  0.37397884  0.96838360  0.37808595     0.31000
C1338       C  0.37097298  0.98341999  0.38813895    -0.35300
C1339       C  0.37393713  0.99939049  0.37968466     0.17000
C1340       C  0.37930088  0.00055536  0.36242027     0.22800
C1341       C  0.38250504  0.98547441  0.35240434    -0.33400
C1342       C  0.37973550  0.96945861  0.36095749     0.16900
O1343       O  0.37201961  0.95211886  0.38341746    -0.25400
C1344       C  0.37678695  0.94263416  0.36961769     0.06700
C1345       C  0.38177404  0.95268254  0.35526364    -0.30300
O1346       O  0.38088410  0.01690892  0.35710035    -0.22200
C1347       C  0.37661497  0.02616089  0.37123390    -0.02200
C1348       C  0.37225455  0.01604098  0.38566801    -0.16600
H1349       H  0.36663323  0.98271312  0.40162793     0.21400
H1350       H  0.38685887  0.98617586  0.33892091     0.19800
H1351       H  0.38615897  0.94825099  0.34251648     0.19700
H1352       H  0.36824976  0.02039132  0.39856409     0.15600
C1353       C  0.38380052  0.87612385  0.27827388     0.31000
C1354       C  0.39274483  0.88070927  0.26294227    -0.35300
C1355       C  0.38440791  0.87626853  0.24721703     0.17000
C1356       C  0.36826842  0.86802487  0.24657002     0.22800
C1357       C  0.35943219  0.86323048  0.26192264    -0.33400
C1358       C  0.36786101  0.86754667  0.27766757     0.16900
O1359       O  0.38900048  0.87937807  0.29440658    -0.25400
C1360       C  0.37630332  0.87266110  0.30424294     0.06700
C1361       C  0.36284566  0.86506594  0.29456686    -0.30300
O1362       O  0.36257053  0.86582645  0.23040524    -0.22200
C1363       C  0.37534830  0.87263000  0.22076113    -0.02200
C1364       C  0.38929700  0.87919955  0.23038846    -0.16600
H1365       H  0.40523498  0.88744298  0.26325103     0.21400
H1366       H  0.34679199  0.85678477  0.26161840     0.19800
H1367       H  0.35098569  0.85889327  0.29931167     0.19700
H1368       H  0.40102749  0.88558672  0.22561961     0.15600
C1369       C  0.80498874  0.21984875  0.42798447     0.31000
C1370       C  0.80638683  0.21235042  0.41122449    -0.35300
C1371       C  0.82347020  0.20905191  0.40523453     0.17000
C1372       C  0.83820546  0.21309340  0.41494660     0.22800
C1373       C  0.83680936  0.22050280  0.43175607    -0.33400
C1374       C  0.81970541  0.22358336  0.43784893     0.16900
O1375       O  0.79029272  0.22382452  0.43621321    -0.25400
C1376       C  0.79562251  0.23003639  0.45164319     0.06700
C1377       C  0.81380495  0.23017926  0.45338863    -0.30300
O1378       O  0.85287936  0.20900994  0.40672534    -0.22200
C1379       C  0.84746758  0.20219237  0.39158676    -0.02200
C1380       C  0.82930591  0.20174019  0.39001240    -0.16600
H1381       H  0.79493667  0.20918297  0.40344437     0.21400
H1382       H  0.84825950  0.22354522  0.43958599     0.19800
H1383       H  0.82152495  0.23453421  0.46448156     0.19700
H1384       H  0.82157431  0.19687927  0.37914105     0.15600
C1385       C  0.80694220  0.31822059  0.53642453     0.31000
C1386       C  0.80882564  0.33357564  0.54641161    -0.35300
C1387       C  0.82603960  0.33965572  0.54878603     0.17000
C1388       C  0.84040518  0.33141676  0.54149651     0.22800
C1389       C  0.83854471  0.31593968  0.53168489    -0.33400
C1390       C  0.82135017  0.30966594  0.52960327     0.16900
O1391       O  0.79204948  0.31029635  0.53252434    -0.25400
C1392       C  0.79696474  0.29632698  0.52328541     0.06700
C1393       C  0.81506149  0.29523530  0.52110489    -0.30300
O1394       O  0.85517848  0.33990215  0.54458249    -0.22200
C1395       C  0.85024148  0.35356484  0.55425425    -0.02200
C1396       C  0.83229156  0.35403415  0.55737437    -0.16600
H1397       H  0.79763218  0.34034594  0.55190921     0.21400
H1398       H  0.84971845  0.30930381  0.52598792     0.19800
H1399       H  0.82246005  0.28534936  0.51411909     0.19700
H1400       H  0.82487965  0.36397641  0.56426301     0.15600
C1401       C  0.71194176  0.33216197  0.41087091     0.31000
C1402       C  0.71990889  0.31577279  0.41323645    -0.35300
C1403       C  0.72263888  0.31055870  0.43065470     0.17000
C1404       C  0.71805429  0.32081679  0.44483687     0.22800
C1405       C  0.70994295  0.33717892  0.44246749    -0.33400
C1406       C  0.70702704  0.34231672  0.42502050     0.16900
O1407       O  0.70822810  0.33961138  0.39571211    -0.25400
C1408       C  0.70079702  0.35472962  0.40019270     0.06700
C1409       C  0.69952547  0.35703741  0.41823679    -0.30300
O1410       O  0.72197690  0.31334886  0.45997585    -0.22200
C1411       C  0.72900993  0.29803882  0.45539091    -0.02200
C1412       C  0.72970559  0.29562172  0.43732404    -0.16600
H1413       H  0.72368798  0.30762546  0.40225080     0.21400
H1414       H  0.70612724  0.34531300  0.45344968     0.19800
H1415       H  0.69409613  0.36809004  0.42527803     0.19700
H1416       H  0.73474678  0.28446540  0.43015463     0.15600
C1417       C  0.68473566  0.27181765  0.56271629     0.31000
C1418       C  0.66978212  0.26709657  0.57232444    -0.35300
C1419       C  0.66239429  0.28030281  0.58278848     0.17000
C1420       C  0.66923365  0.29696706  0.58387261     0.22800
C1421       C  0.68409214  0.30175963  0.57411213    -0.33400
C1422       C  0.69143756  0.28859145  0.56353393     0.16900
O1423       O  0.69370646  0.26157364  0.55202925    -0.25400
C1424       C  0.70624447  0.27196427  0.54577416     0.06700
C1425       C  0.70544597  0.28892561  0.55246100    -0.30300
O1426       O  0.66029228  0.30712418  0.59468855    -0.22200
C1427       C  0.64752362  0.29683226  0.60070727    -0.02200
C1428       C  0.64811126  0.28005275  0.59341333    -0.16600
H1429       H  0.66427971  0.25404525  0.57168549     0.21400
H1430       H  0.68952878  0.31483796  0.57469736     0.19800
H1431       H  0.71394719  0.29989429  0.54955075     0.19700
H1432       H  0.63927643  0.26916174  0.59513495     0.15600
C1433       C  0.78581907  0.16164096  0.58196454     0.31000
C1434       C  0.77126287  0.16992722  0.57433428    -0.35300
C1435       C  0.77493629  0.18322062  0.56217110     0.17000
C1436       C  0.79177893  0.18807874  0.55771227     0.22800
C1437       C  0.80637775  0.17975009  0.56535585    -0.33400
C1438       C  0.80268573  0.16643984  0.57758002     0.16900
O1439       O  0.78534933  0.14907756  0.59384618    -0.25400
C1440       C  0.80214312  0.14566339  0.59722204     0.06700
C1441       C  0.81350962  0.15611553  0.58741398    -0.30300
O1442       O  0.79208561  0.20088283  0.54600115    -0.22200
C1443       C  0.77518701  0.20425357  0.54295144    -0.02200
C1444       C  0.76399135  0.19364341  0.55268945    -0.16600
H1445       H  0.75796239  0.16631187  0.57771832     0.21400
H1446       H  0.81968128  0.18343105  0.56206430     0.19800
H1447       H  0.82769691  0.15623574  0.58759603     0.19700
H1448       H  0.74979447  0.19359928  0.55273152     0.15600
C1449       C  0.77640994  0.05848787  0.67777474     0.31000
C1450       C  0.77632380  0.06368945  0.66010389    -0.35300
C1451       C  0.78651384  0.07844948  0.65594788     0.17000
C1452       C  0.79643124  0.08729516  0.66824110     0.22800
C1453       C  0.79632272  0.08224369  0.68595602    -0.33400
C1454       C  0.78585110  0.06769680  0.69017479     0.16900
O1455       O  0.76781650  0.04507349  0.68457631    -0.25400
C1456       C  0.77156416  0.04587183  0.70162058     0.06700
C1457       C  0.78266277  0.05973438  0.70584545    -0.30300
O1458       O  0.80523870  0.10054322  0.66138889    -0.22200
C1459       C  0.80063876  0.10038030  0.64454172    -0.02200
C1460       C  0.78899864  0.08694332  0.64043533    -0.16600
H1461       H  0.76875639  0.05676825  0.65028505     0.21400
H1462       H  0.80380503  0.08923144  0.69579261     0.19800
H1463       H  0.78779893  0.06327315  0.71859944     0.19700
H1464       H  0.78333010  0.08381758  0.62780057     0.15600
C1465       C  0.66715048  0.08998141  0.78529313     0.31000
C1466       C  0.68107348  0.08707486  0.77362149    -0.35300
C1467       C  0.68846943  0.07024677  0.77388749     0.17000
C1468       C  0.68229935  0.05703672  0.78457814     0.22800
C1469       C  0.66848581  0.06000594  0.79638599    -0.33400
C1470       C  0.66136546  0.07696327  0.79642085     0.16900
O1471       O  0.65844422  0.10476540  0.78733213    -0.25400
C1472       C  0.64710973  0.10127226  0.80011877     0.06700
C1473       C  0.64838952  0.08420901  0.80635429    -0.30300
O1474       O  0.69100986  0.04223492  0.78249422    -0.22200
C1475       C  0.70311718  0.04610714  0.77054374    -0.02200
C1476       C  0.70220892  0.06336680  0.76477737    -0.16600
H1477       H  0.68591802  0.09728110  0.76505571     0.21400
H1478       H  0.66374166  0.04985249  0.80506732     0.19800
H1479       H  0.64069212  0.07801155  0.81652130     0.19700
H1480       H  0.71039440  0.06982485  0.75516497     0.15600
C1481       C  0.68655417  0.18632989  0.47671346     0.31000
C1482       C  0.67592255  0.17224739  0.48180953    -0.35300
C1483       C  0.66500066  0.16520155  0.46879664     0.17000
C1484       C  0.66440688  0.17153245  0.45191902     0.22800
C1485       C  0.67517942  0.18559558  0.44673786    -0.33400
C1486       C  0.68624277  0.19263065  0.45976750     0.16900
O1487       O  0.69771121  0.19484241  0.48684078    -0.25400
C1488       C  0.70482586  0.20674449  0.47628015     0.06700
C1489       C  0.69820697  0.20596341  0.45924056    -0.30300
O1490       O  0.65311855  0.16284105  0.44198405    -0.22200
C1491       C  0.64632451  0.15076791  0.45267234    -0.02200
C1492       C  0.65355557  0.15160553  0.46947775    -0.16600
H1493       H  0.67616159  0.16710954  0.49502405     0.21400
H1494       H  0.67499258  0.19065642  0.43349594     0.19800
H1495       H  0.70163658  0.21409691  0.44814975     0.19700
H1496       H  0.65140674  0.14330039  0.48068501     0.15600
C1497       C  0.66436889  0.96301383  0.66186854     0.31000
C1498       C  0.67995359  0.97258585  0.66384308    -0.35300
C1499       C  0.68682973  0.97347553  0.68087884     0.17000
C1500       C  0.67873923  0.96581656  0.69511843     0.22800
C1501       C  0.66323855  0.95602631  0.69309964    -0.33400
C1502       C  0.65655491  0.95480376  0.67595812     0.16900
O1503       O  0.65578593  0.96043747  0.64707753    -0.25400
C1504       C  0.64244470  0.95018699  0.65163753     0.06700
C1505       C  0.64228696  0.94615541  0.66942838    -0.30300
O1506       O  0.68732210  0.96865378  0.70991818    -0.22200
C1507       C  0.70123120  0.97800759  0.70501654    -0.02200
C1508       C  0.70162692  0.98131164  0.68708870    -0.16600
H1509       H  0.68634634  0.97881321  0.65282224     0.21400
H1510       H  0.65690643  0.94970193  0.70409770     0.19800
H1511       H  0.63292053  0.93819795  0.67649896     0.19700
H1512       H  0.71131075  0.98863185  0.67975374     0.15600
C1513       C  0.53420511  0.13220951  0.62340450     0.31000
C1514       C  0.51933652  0.14031413  0.61630861    -0.35300
C1515       C  0.50318067  0.13352564  0.62169240     0.17000
C1516       C  0.50174077  0.11966664  0.63326521     0.22800
C1517       C  0.51662466  0.11170072  0.64052520    -0.33400
C1518       C  0.53279732  0.11851311  0.63513338    -0.02300
O1519       O  0.55059871  0.13607425  0.61970578    -0.25400
C1520       C  0.55981590  0.12476476  0.62922742     0.06700
C1521       C  0.54945835  0.11354795  0.63915074    -0.30300
O1522       O  0.48534015  0.11501208  0.63597026    -0.22200
C1523       C  0.47632494  0.12607046  0.62600984    -0.02200
C1524       C  0.48659762  0.13797057  0.61692097    -0.16600
H1525       H  0.52030622  0.15097718  0.60701419     0.21400
H1526       H  0.51566726  0.10077630  0.64951063     0.19800
H1527       H  0.55360579  0.10307441  0.64776643     0.19700
H1528       H  0.48241428  0.14810136  0.60792930     0.15600
C1529       C  0.61944693  0.13210178  0.53358620     0.31000
C1530       C  0.61369959  0.14140644  0.51883381    -0.35300
C1531       C  0.61830075  0.13423659  0.50257853     0.17000
C1532       C  0.62778605  0.11887297  0.50097737     0.22800
C1533       C  0.63361793  0.10965709  0.51571357    -0.33400
C1534       C  0.62913433  0.11690399  0.53194202     0.16900
O1535       O  0.61671691  0.13643809  0.55006506    -0.25400
C1536       C  0.62487258  0.12392124  0.55902808     0.06700
C1537       C  0.63284940  0.11143105  0.54845830    -0.30300
O1538       O  0.63051139  0.11443664  0.48454514    -0.22200
C1539       C  0.62278113  0.12719443  0.47562154    -0.02200
C1540       C  0.61497153  0.13991744  0.48601455    -0.16600
H1541       H  0.60621932  0.15340667  0.51995453     0.21400
H1542       H  0.64116633  0.09769891  0.51459856     0.19800
H1543       H  0.64027846  0.10000446  0.55239273     0.19700
H1544       H  0.60789990  0.15150093  0.48191151     0.15600
C1545       C  0.62949352  0.03016157  0.61852835     0.31000
C1546       C  0.63344766  0.01486285  0.60909851    -0.35300
C1547       C  0.62880083  0.99903883  0.61719015     0.17000
C1548       C  0.62100450  0.99837795  0.63352936     0.22800
C1549       C  0.61700780  0.01362684  0.64288898    -0.33400
C1550       C  0.62143718  0.02939653  0.63471156     0.16900
O1551       O  0.63255400  0.04639097  0.61347564    -0.25400
C1552       C  0.62622342  0.05606278  0.62654412     0.06700
C1553       C  0.61910556  0.04619371  0.64006704    -0.30300
O1554       O  0.61779703  0.98228012  0.63869404    -0.22200
C1555       C  0.62337079  0.97254813  0.62540302    -0.02200
C1556       C  0.63045862  0.98213328  0.61166172    -0.16600
H1557       H  0.63959638  0.01527531  0.59632190     0.21400
H1558       H  0.61075263  0.01321985  0.65561591     0.19800
H1559       H  0.61317220  0.05075581  0.65212349     0.19700
H1560       H  0.63597440  0.97732606  0.59951028     0.15600
C1561       C  0.61933617  0.21655783  0.62087666     0.31000
C1562       C  0.60918449  0.23132791  0.61693205    -0.35300
C1563       C  0.61679818  0.24750748  0.62098006     0.17000
C1564       C  0.63336614  0.24903140  0.62821608     0.22800
C1565       C  0.64346803  0.23426425  0.63222291    -0.33400
C1566       C  0.63576659  0.21809088  0.62835734     0.16900
O1567       O  0.61467988  0.20014244  0.61848094    -0.25400
C1568       C  0.62823136  0.19108971  0.62464912     0.06700
C1569       C  0.64174847  0.20153663  0.63095574    -0.30300
O1570       O  0.63811583  0.26542932  0.63050113    -0.22200
C1571       C  0.62433757  0.27439650  0.62481009    -0.02200
C1572       C  0.61063871  0.26406503  0.61876606    -0.16600
H1573       H  0.59624266  0.23027065  0.61118323     0.21400
H1574       H  0.65640200  0.23531646  0.63798860     0.19800
H1575       H  0.65407348  0.19750338  0.63673524     0.19700
H1576       H  0.59823549  0.26820921  0.61325274     0.15600
C1577       C  0.75310643  0.12508593  0.62972489     0.31000
C1578       C  0.73844036  0.12909081  0.64000612    -0.35300
C1579       C  0.72212514  0.12548146  0.63241013     0.17000
C1580       C  0.72035823  0.11814422  0.61595066     0.22800
C1581       C  0.73504633  0.11417707  0.60563360    -0.33400
C1582       C  0.75137943  0.11805349  0.61310904     0.16900
O1583       O  0.76957377  0.12751191  0.63421849    -0.25400
C1584       C  0.77842140  0.12224923  0.62019449     0.06700
C1585       C  0.76791284  0.11612303  0.60665590    -0.30300
O1586       O  0.70383117  0.11589283  0.61144783    -0.22200
C1587       C  0.69493679  0.12203507  0.62512117    -0.02200
C1588       C  0.70561988  0.12820910  0.63854322    -0.16600
H1589       H  0.73966951  0.13477898  0.65295323     0.21400
H1590       H  0.73381387  0.10862226  0.59263081     0.19800
H1591       H  0.77191435  0.11087307  0.59410064     0.19700
H1592       H  0.70176472  0.13388980  0.65096389     0.15600
C1593       C  0.62977185  0.13442905  0.75192715     0.31000
C1594       C  0.63372340  0.14396125  0.73671851    -0.35300
C1595       C  0.63132197  0.13504731  0.72080823     0.17000
C1596       C  0.62523910  0.11802611  0.71994568     0.22800
C1597       C  0.62146002  0.10846219  0.73511427    -0.33400
C1598       C  0.62400576  0.11728904  0.75098104     0.16900
O1599       O  0.63112447  0.14007160  0.76821835    -0.25400
C1600       C  0.62621207  0.12629529  0.77765911     0.06700
C1601       C  0.62169307  0.11176517  0.76771058    -0.30300
O1602       O  0.62350039  0.11238168  0.70373861    -0.22200
C1603       C  0.62872693  0.12586642  0.69407270    -0.02200
C1604       C  0.63383408  0.14031990  0.70395193    -0.16600
H1605       H  0.63834685  0.15735711  0.73725153     0.21400
H1606       H  0.61682116  0.09507025  0.73457826     0.19800
H1607       H  0.61739857  0.09903144  0.77222189     0.19700
H1608       H  0.63838190  0.15293763  0.69935664     0.15600
C1609       C  0.83278968  0.04882027  0.83013898     0.31000
C1610       C  0.82390330  0.05338411  0.81461813    -0.35300
C1611       C  0.81158366  0.04115586  0.80838046     0.17000
C1612       C  0.80842542  0.02544571  0.81674243     0.22800
C1613       C  0.81702675  0.02107445  0.83240729    -0.33400
C1614       C  0.82918041  0.03335217  0.83870901     0.16900
O1615       O  0.84520531  0.05798731  0.83804204    -0.25400
C1616       C  0.84970535  0.04822448  0.85183254     0.06700
C1617       C  0.83975144  0.03296240  0.85309229    -0.30300
O1618       O  0.79702771  0.01557433  0.80827032    -0.22200
C1619       C  0.79255379  0.02515002  0.79440719    -0.02200
C1620       C  0.80112174  0.04126266  0.79382462    -0.16600
H1621       H  0.82656463  0.06550720  0.80777206     0.21400
H1622       H  0.81459551  0.00881238  0.83909248     0.19800
H1623       H  0.84011683  0.02296321  0.86311796     0.19700
H1624       H  0.80015470  0.05131656  0.78387383     0.15600
C1625       C  0.71809051  0.91105560  0.83281904     0.31000
C1626       C  0.73242634  0.91716539  0.82293429    -0.35300
C1627       C  0.72915117  0.93157533  0.81189546     0.17000
C1628       C  0.71285200  0.93932017  0.81057914     0.22800
C1629       C  0.69856980  0.93322363  0.82046034    -0.33400
C1630       C  0.70187882  0.91893266  0.83155460     0.16900
O1631       O  0.71821723  0.89801268  0.84422852    -0.25400
C1632       C  0.70191714  0.89761550  0.85055167     0.06700
C1633       C  0.69118775  0.91029955  0.84294502    -0.30300
O1634       O  0.71267323  0.95263325  0.79953199    -0.22200
C1635       C  0.72910206  0.95357695  0.79369189    -0.02200
C1636       C  0.73995372  0.94079087  0.80097115    -0.16600
H1637       H  0.74527565  0.91121279  0.82391522     0.21400
H1638       H  0.68577134  0.93930840  0.81966247     0.19800
H1639       H  0.67752312  0.91300766  0.84563769     0.19700
H1640       H  0.75377064  0.93862021  0.79855764     0.15600
C1641       C  0.83200629  0.91966363  0.69996970     0.31000
C1642       C  0.81652656  0.92858499  0.69550183    -0.35300
C1643       C  0.81039873  0.94079666  0.70783342     0.17000
C1644       C  0.81886019  0.94392164  0.72353259     0.22800
C1645       C  0.83460031  0.93538258  0.72775500    -0.33400
C1646       C  0.84075564  0.92325952  0.71538061     0.16900
O1647       O  0.83943507  0.90688675  0.69097082    -0.25400
C1648       C  0.85310798  0.90215449  0.70077197     0.06700
C1649       C  0.85483315  0.91234128  0.71584890    -0.30300
O1650       O  0.81020428  0.95495262  0.73364838    -0.22200
C1651       C  0.79611690  0.95914300  0.72422431    -0.02200
C1652       C  0.79561913  0.95084231  0.70798238    -0.16600
H1653       H  0.80947586  0.92583048  0.68349067     0.21400
H1654       H  0.84130520  0.93764223  0.74006622     0.19800
H1655       H  0.86480879  0.91174370  0.72591209     0.19700
H1656       H  0.78551231  0.95161345  0.69804047     0.15600
C1657       C  0.78245363  0.86806700  0.88037362     0.31000
C1658       C  0.76729799  0.85810330  0.88306404    -0.35300
C1659       C  0.75142842  0.86678256  0.88007651     0.17000
C1660       C  0.75048942  0.88416839  0.87522209     0.22800
C1661       C  0.76565479  0.89408553  0.87232964    -0.33400
C1662       C  0.78155279  0.88529405  0.87491661     0.16900
O1663       O  0.79868096  0.86248286  0.88201595    -0.25400
C1664       C  0.80825104  0.87622026  0.87728432     0.06700
C1665       C  0.79834618  0.89076874  0.87266196    -0.30300
O1666       O  0.73424811  0.88958509  0.87313314    -0.22200
C1667       C  0.72469328  0.87540736  0.87637026    -0.02200
C1668       C  0.73471835  0.86077711  0.88063096    -0.16600
H1669       H  0.76784770  0.84447071  0.88692135     0.21400
H1670       H  0.76509206  0.90759372  0.86806416     0.19800
H1671       H  0.80288252  0.90348912  0.86834713     0.19700
H1672       H  0.73047020  0.84753076  0.88329325     0.15600
C1673       C  0.87144293  0.74953684  0.88443697     0.31000
C1674       C  0.86948367  0.76475636  0.89442996    -0.35300
C1675       C  0.87007570  0.78047277  0.88509950     0.17000
C1676       C  0.87262600  0.78120537  0.86718575     0.22800
C1677       C  0.87394640  0.76591644  0.85709226    -0.33400
C1678       C  0.87317522  0.75014852  0.86642721     0.16900
O1679       O  0.87259329  0.73355556  0.89064411    -0.25400
C1680       C  0.87498714  0.72377730  0.87644609     0.06700
C1681       C  0.87495367  0.73330317  0.86091951    -0.30300
O1682       O  0.87416587  0.79738530  0.86142389    -0.22200
C1683       C  0.87225254  0.80701376  0.87581486    -0.02200
C1684       C  0.86950598  0.79724325  0.89088391    -0.16600
H1685       H  0.86815195  0.76438515  0.90855383     0.21400
H1686       H  0.87598883  0.76629587  0.84305696     0.19800
H1687       H  0.87644849  0.72860207  0.84761915     0.19700
H1688       H  0.86801944  0.80184922  0.90422852     0.15600
C1689       C  0.00055108  0.88091785  0.87637140     0.31000
C1690       C  0.98555589  0.89149531  0.87625248    -0.35300
C1691       C  0.96951770  0.88258905  0.87629565     0.17000
C1692       C  0.96832743  0.86452973  0.87610828     0.22800
C1693       C  0.98331426  0.85396409  0.87652350    -0.33400
C1694       C  0.99933755  0.86286303  0.87680387     0.16900
O1695       O  0.01688489  0.88644656  0.87650257    -0.25400
C1696       C  0.02615784  0.87173193  0.87716242     0.06700
C1697       C  0.01599078  0.85665516  0.87760343    -0.30300
O1698       O  0.95200665  0.85897128  0.87584603    -0.22200
C1699       C  0.94267981  0.87364923  0.87618488    -0.02200
C1700       C  0.95281624  0.88875622  0.87656185    -0.16600
H1701       H  0.98634350  0.90565415  0.87625406     0.21400
H1702       H  0.98253017  0.83980717  0.87672016     0.19800
H1703       H  0.02028084  0.84316631  0.87844027     0.19700
H1704       H  0.94847786  0.90225732  0.87681410     0.15600
C1705       C  0.88573971  0.87342038  0.96980986     0.31000
C1706       C  0.89593797  0.87546863  0.98498909    -0.35300
C1707       C  0.88694819  0.87384434  0.00092683     0.17000
C1708       C  0.86914755  0.87065811  0.00180783     0.22800
C1709       C  0.85908702  0.86807642  0.98669330    -0.33400
C1710       C  0.86808264  0.86951728  0.97080770     0.16900
O1711       O  0.89116629  0.87519869  0.95350718    -0.25400
C1712       C  0.87683342  0.87210571  0.94404738     0.06700
C1713       C  0.86213358  0.86838317  0.95409070    -0.30300
O1714       O  0.86315427  0.87101066  0.01793686    -0.22200
C1715       C  0.87727863  0.87440404  0.02756061    -0.02200
C1716       C  0.89258947  0.87577447  0.01774324    -0.16600
H1717       H  0.90978605  0.87853266  0.98441410     0.21400
H1718       H  0.84512806  0.86555376  0.98727345     0.19800
H1719       H  0.84889157  0.86574397  0.94968841     0.19700
H1720       H  0.90584147  0.87813824  0.02223597     0.15600
C1721       C  0.88351813  0.87677974  0.75124167     0.31000
C1722       C  0.89410411  0.87512627  0.76617116    -0.35300
C1723       C  0.88525209  0.87508815  0.78224688     0.17000
C1724       C  0.86728488  0.87701219  0.78352582     0.22800
C1725       C  0.85669107  0.87836849  0.76860197    -0.33400
C1726       C  0.86548655  0.87794922  0.75253904     0.16900
O1727       O  0.88895163  0.87672160  0.73487818    -0.25400
C1728       C  0.87418106  0.87764760  0.72566360     0.06700
C1729       C  0.85915037  0.87818709  0.73591230    -0.30300
O1730       O  0.86178523  0.87704226  0.79985239    -0.22200
C1731       C  0.87635647  0.87475800  0.80911655    -0.02200
C1732       C  0.89137143  0.87335102  0.79890840    -0.16600
H1733       H  0.90820524  0.87374613  0.76529660     0.21400
H1734       H  0.84256376  0.87946621  0.76945605     0.19800
H1735       H  0.84560096  0.87857266  0.73169036     0.19700
H1736       H  0.90480533  0.87164683  0.80317994     0.15600
C1737       C  0.87535272  0.96643495  0.86744265     0.31000
C1738       C  0.87442737  0.98128624  0.85675104    -0.35300
C1739       C  0.87482501  0.99738188  0.86548943     0.17000
C1740       C  0.87570961  0.99876456  0.88352736     0.22800
C1741       C  0.87708915  0.98391653  0.89419717    -0.33400
C1742       C  0.87700464  0.96781555  0.88542878     0.16900
O1743       O  0.87474880  0.95008191  0.86208213    -0.25400
C1744       C  0.87634813  0.94092802  0.87678593     0.06700
C1745       C  0.87794113  0.95120635  0.89172229    -0.30300
O1746       O  0.87529591  0.01511566  0.88893213    -0.22200
C1747       C  0.87432576  0.02425301  0.87414549    -0.02200
C1748       C  0.87429809  0.01396478  0.85912468    -0.16600
H1749       H  0.87336953  0.98035189  0.84262893     0.21400
H1750       H  0.87806559  0.98485358  0.90832533     0.19800
H1751       H  0.87914174  0.94701885  0.90522570     0.19700
H1752       H  0.87385696  0.01811810  0.84557040     0.15600
C1753       C  0.04073518  0.81055549  0.81104411     0.31000
C1754       C  0.05475733  0.81574747  0.82189170    -0.35300
C1755       C  0.05133183  0.82964540  0.83353743     0.17000
C1756       C  0.03526957  0.83789765  0.83435160     0.22800
C1757       C  0.02129225  0.83272443  0.82356343    -0.33400
C1758       C  0.02466638  0.81880916  0.81204069     0.16900
O1759       O  0.04075488  0.79751473  0.79959291    -0.25400
C1760       C  0.02443706  0.79739177  0.79328660     0.06700
C1761       C  0.01391172  0.81038347  0.80056630    -0.30300
O1762       O  0.03481004  0.85038160  0.84629247    -0.22200
C1763       C  0.05071853  0.85013995  0.85348000    -0.02200
C1764       C  0.06161524  0.83753916  0.84592242    -0.16600
H1765       H  0.06736776  0.80925244  0.82146012     0.21400
H1766       H  0.00856327  0.83896456  0.82429049     0.19800
H1767       H  0.00019140  0.81300174  0.79801357     0.19700
H1768       H  0.07506094  0.83445129  0.84925455     0.15600
C1769       C  0.91674892  0.83463893  0.70357669     0.31000
C1770       C  0.93215115  0.82548946  0.69946269    -0.35300
C1771       C  0.93830425  0.81384225  0.71227249     0.17000
C1772       C  0.93003268  0.81146175  0.72817968     0.22800
C1773       C  0.91442011  0.82040443  0.73217536    -0.33400
C1774       C  0.90818005  0.83196110  0.71925775     0.16900
O1775       O  0.90896403  0.84647810  0.69367112    -0.25400
C1776       C  0.89521600  0.85159656  0.70311501     0.06700
C1777       C  0.89387778  0.84264595  0.71900462    -0.30300
O1778       O  0.93851589  0.80036827  0.73844538    -0.22200
C1779       C  0.95225713  0.79544299  0.72884691    -0.02200
C1780       C  0.95270247  0.80333705  0.71243393    -0.16600
H1781       H  0.93896863  0.82743927  0.68717849     0.21400
H1782       H  0.90771753  0.81863725  0.74455165     0.19800
H1783       H  0.88384030  0.84367922  0.72895538     0.19700
H1784       H  0.96245470  0.80181152  0.70224328     0.15600
C1785       C  0.94074511  0.71254722  0.81262708     0.31000
C1786       C  0.93216211  0.69792431  0.81979071    -0.35300
C1787       C  0.92096418  0.70126079  0.83402102     0.17000
C1788       C  0.91843953  0.71781610  0.84079187     0.22800
C1789       C  0.92693443  0.73245430  0.83358200    -0.33400
C1790       C  0.93807774  0.72913564  0.81931894     0.16900
O1791       O  0.95183713  0.71244766  0.79933245    -0.25400
C1792       C  0.95631075  0.72920564  0.79744794     0.06700
C1793       C  0.94810406  0.74017435  0.80951124    -0.30300
O1794       O  0.90734329  0.71793490  0.85405509    -0.22200
C1795       C  0.90237963  0.70129215  0.85569093    -0.02200
C1796       C  0.91065681  0.69030660  0.84366053    -0.16600
H1797       H  0.93405287  0.68485868  0.81460532     0.21400
H1798       H  0.92494747  0.74553235  0.83870640     0.19800
H1799       H  0.94941122  0.75422864  0.81088864     0.19700
H1800       H  0.90907082  0.67631197  0.84204023     0.15600
C1801       C  0.05583217  0.68297398  0.78409891     0.31000
C1802       C  0.05831672  0.66855049  0.79522032    -0.35300
C1803       C  0.07493254  0.66067924  0.79471351     0.17000
C1804       C  0.08814556  0.66635238  0.78375748     0.22800
C1805       C  0.08571901  0.68091746  0.77272684    -0.33400
C1806       C  0.06918345  0.68904699  0.77351475     0.16900
O1807       O  0.04131678  0.69225457  0.78252612    -0.25400
C1808       C  0.04546825  0.70467804  0.77103556     0.06700
C1809       C  0.06266908  0.70339506  0.76502791    -0.30300
O1810       O  0.10263067  0.65698603  0.78545434    -0.22200
C1811       C  0.09870094  0.64530651  0.79782755    -0.02200
C1812       C  0.08164872  0.64704940  0.80406890    -0.16600
H1813       H  0.04803790  0.66388084  0.80380551     0.21400
H1814       H  0.09605721  0.68569172  0.76427035     0.19800
H1815       H  0.06926106  0.71162982  0.75555222     0.19700
H1816       H  0.07514354  0.63936970  0.81405318     0.15600
C1817       C  0.05484042  0.78569233  0.68138999     0.31000
C1818       C  0.05793276  0.79710311  0.66730428    -0.35300
C1819       C  0.07475656  0.79638858  0.65989209     0.17000
C1820       C  0.08755722  0.78499632  0.66569951     0.22800
C1821       C  0.08455274  0.77376430  0.67992498    -0.33400
C1822       C  0.06785149  0.77472201  0.68755419     0.16900
O1823       O  0.04009787  0.78419981  0.69033428    -0.25400
C1824       C  0.04385578  0.77236202  0.70257496     0.06700
C1825       C  0.06093069  0.76606679  0.70151384    -0.30300
O1826       O  0.10220238  0.78625565  0.65660727    -0.22200
C1827       C  0.09882735  0.79877396  0.64495831    -0.02200
C1828       C  0.08198968  0.80562965  0.64646210    -0.16600
H1829       H  0.04795132  0.80597735  0.66251270     0.21400
H1830       H  0.09456978  0.76495532  0.68476503     0.19800
H1831       H  0.06723944  0.75639775  0.70975676     0.19700
H1832       H  0.07589248  0.81574582  0.63861159     0.15600
C1833       C  0.96310779  0.66435785  0.66650607     0.31000
C1834       C  0.97351093  0.66620271  0.68158705    -0.35300
C1835       C  0.97333069  0.68279689  0.68950920     0.17000
C1836       C  0.96387582  0.69669251  0.68280276     0.22800
C1837       C  0.95328450  0.69476884  0.66790628    -0.33400
C1838       C  0.95318658  0.67811359  0.66021234     0.16900
O1839       O  0.96140488  0.65008956  0.65690519    -0.25400
C1840       C  0.95005420  0.65473514  0.64449075     0.06700
C1841       C  0.94442001  0.67197584  0.64595394    -0.30300
O1842       O  0.96611513  0.71120979  0.69186671    -0.22200
C1843       C  0.97687594  0.70650282  0.70474733    -0.02200
C1844       C  0.98174200  0.68895462  0.70403244    -0.16600
H1845       H  0.98120735  0.65546858  0.68676332     0.21400
H1846       H  0.94566895  0.70552732  0.66266192     0.19800
H1847       H  0.93543557  0.67902829  0.63753243     0.19700
H1848       H  0.99053919  0.68193109  0.71267442     0.15600
C1849       C  0.11923398  0.62932104  0.53207501     0.31000
C1850       C  0.11161078  0.63691196  0.51724586    -0.35300
C1851       C  0.11795717  0.63105300  0.50110160     0.17000
C1852       C  0.13094568  0.61851884  0.49953285     0.22800
C1853       C  0.13860628  0.61088405  0.51443927    -0.33400
C1854       C  0.13222173  0.61678872  0.53067436     0.16900
O1855       O  0.11524891  0.63301329  0.54843109    -0.25400
C1856       C  0.12578801  0.62274748  0.55772569     0.06700
C1857       C  0.13664908  0.61230948  0.54740318    -0.30300
O1858       O  0.13467685  0.61493376  0.48301262    -0.22200
C1859       C  0.12390971  0.62537834  0.47413703    -0.02200
C1860       C  0.11324576  0.63566470  0.48461467    -0.16600
H1861       H  0.10140675  0.64672224  0.51823347     0.21400
H1862       H  0.14877674  0.60104149  0.51345453     0.19800
H1863       H  0.14639465  0.60289837  0.55161878     0.19700
H1864       H  0.10338110  0.64502387  0.48057353     0.15600
C1865       C  0.11678607  0.49918983  0.63309658     0.31000
C1866       C  0.11017667  0.51440565  0.64097246    -0.35300
C1867       C  0.11644092  0.53026129  0.63417372     0.17000
C1868       C  0.12838096  0.53107217  0.62058995     0.22800
C1869       C  0.13493790  0.51590593  0.61268939    -0.33400
C1870       C  0.12868035  0.50009811  0.61945047     0.16900
O1871       O  0.11285899  0.48292779  0.63736468    -0.25400
C1872       C  0.12236689  0.47353544  0.62622695     0.06700
C1873       C  0.13243189  0.48339782  0.61480640    -0.30300
O1874       O  0.13247766  0.54723686  0.61631531    -0.22200
C1875       C  0.12302931  0.55691375  0.62727087    -0.02200
C1876       C  0.11279049  0.54709604  0.63869145    -0.16600
H1877       H  0.10084288  0.51392090  0.65164288     0.21400
H1878       H  0.14428017  0.51639729  0.60202334     0.19800
H1879       H  0.14121823  0.47882857  0.60465020     0.19700
H1880       H  0.10396384  0.55170652  0.64879802     0.15600
C1881       C  0.99850526  0.62175359  0.63047932     0.31000
C1882       C  0.01330833  0.61327838  0.63740901    -0.35300
C1883       C  0.02961649  0.61917724  0.63123941     0.17000
C1884       C  0.03123251  0.63243667  0.61904604     0.22800
C1885       C  0.01647551  0.64090330  0.61214504    -0.33400
C1886       C  0.00021873  0.63508242  0.61834670     0.16900
O1887       O  0.98195117  0.61827199  0.63417823    -0.25400
C1888       C  0.97314257  0.62960189  0.62430214     0.06700
C1889       C  0.98373112  0.64036512  0.61421323    -0.30300
O1890       O  0.04769361  0.63593410  0.61516090    -0.22200
C1891       C  0.05679369  0.62482516  0.62502404    -0.02200
C1892       C  0.04624509  0.61405579  0.63529584    -0.16600
H1893       H  0.01219515  0.60282929  0.64692575     0.21400
H1894       H  0.01759314  0.65132846  0.60260042     0.19800
H1895       H  0.97976221  0.65038289  0.60499750     0.19700
H1896       H  0.05026414  0.60401730  0.64447311     0.15600
C1897       C  0.21795390  0.61368430  0.62265299     0.31000
C1898       C  0.23281798  0.60314009  0.62023073    -0.35300
C1899       C  0.24901160  0.61172862  0.62148140     0.17000
C1900       C  0.25042112  0.62950428  0.62465391     0.22800
C1901       C  0.23559960  0.63995040  0.62736300    -0.33400
C1902       C  0.21945647  0.63133080  0.62636071     0.16900
O1903       O  0.20149563  0.60854044  0.62167611    -0.25400
C1904       C  0.19243199  0.62303912  0.62505052     0.06700
C1905       C  0.20289485  0.63758732  0.62818871    -0.30300
O1906       O  0.26677395  0.63492550  0.62494851    -0.22200
C1907       C  0.27591997  0.62040660  0.62217476    -0.02200
C1908       C  0.26566985  0.60552271  0.61995657    -0.16600
H1909       H  0.23182295  0.58925811  0.61750080     0.21400
H1910       H  0.23659270  0.65384554  0.63002439     0.19800
H1911       H  0.19885118  0.65089066  0.63099139     0.19700
H1912       H  0.26990221  0.59221127  0.61751161     0.15600
C1913       C  0.11800365  0.74973662  0.61958783     0.31000
C1914       C  0.11083727  0.73454843  0.61217598    -0.35300
C1915       C  0.11701470  0.71867205  0.61894549     0.17000
C1916       C  0.12940745  0.71776050  0.63211789     0.22800
C1917       C  0.13649751  0.73298302  0.63965017    -0.33400
C1918       C  0.13030691  0.74890523  0.63288164     0.16900
O1919       O  0.11430192  0.76592329  0.61498828    -0.25400
C1920       C  0.12433943  0.77552437  0.62548027     0.06700
C1921       C  0.13452367  0.76577461  0.63698055    -0.30300
O1922       O  0.13355395  0.70148320  0.63614008    -0.22200
C1923       C  0.12367264  0.69189638  0.62540241    -0.02200
C1924       C  0.11308146  0.70189315  0.61446065    -0.16600
H1925       H  0.10122984  0.73507758  0.60173308     0.21400
H1926       H  0.14626183  0.73244659  0.64994468     0.19800
H1927       H  0.14373974  0.77045121  0.64671020     0.19700
H1928       H  0.10397963  0.69743215  0.60451393     0.15600
C1929       C  0.11773845  0.62313400  0.75042705     0.31000
C1930       C  0.10827009  0.61945610  0.73518567    -0.35300
C1931       C  0.11701016  0.62260456  0.71943829     0.17000
C1932       C  0.13384870  0.62920449  0.71862978     0.22800
C1933       C  0.14340819  0.63285133  0.73395954    -0.33400
C1934       C  0.13471698  0.62945251  0.74981361     0.16900
O1935       O  0.11205565  0.62090033  0.76649874    -0.25400
C1936       C  0.12559087  0.62566662  0.77632311     0.06700
C1937       C  0.14009707  0.63116724  0.76679121    -0.30300
O1938       O  0.13930981  0.63121918  0.70234613    -0.22200
C1939       C  0.12581480  0.62563544  0.69276408    -0.02200
C1940       C  0.11164102  0.62009775  0.70270081    -0.16600
H1941       H  0.09503553  0.61434114  0.73558779     0.21400
H1942       H  0.15668708  0.63784330  0.73355501     0.19800
H1943       H  0.15260538  0.63578631  0.77165298     0.19700
H1944       H  0.09914244  0.61507239  0.69820606     0.15600
C1945       C  0.80767052  0.81895226  0.03550392     0.31000
C1946       C  0.80985691  0.83479125  0.04467268    -0.35300
C1947       C  0.82714335  0.84099766  0.04622661     0.17000
C1948       C  0.84130001  0.83239939  0.03895631     0.22800
C1949       C  0.83913879  0.81641342  0.03001839    -0.33400
C1950       C  0.82187950  0.81003974  0.02873686     0.16900
O1951       O  0.79265005  0.81092486  0.03229704    -0.25400
C1952       C  0.79727380  0.79651431  0.02357766     0.06700
C1953       C  0.81532313  0.79523707  0.02107113    -0.30300
O1954       O  0.85623019  0.84084595  0.04151619    -0.22200
C1955       C  0.85161918  0.85491272  0.05078662    -0.02200
C1956       C  0.83370545  0.85561453  0.05419929    -0.16600
H1957       H  0.79883001  0.84181306  0.05018908     0.21400
H1958       H  0.85015261  0.80944253  0.02441330     0.19800
H1959       H  0.82250584  0.78506486  0.01427475     0.19700
H1960       H  0.82654863  0.86564200  0.06123175     0.15600
C1961       C  0.83402026  0.71356204  0.91219808     0.31000
C1962       C  0.81889547  0.72389517  0.91426545    -0.35300
C1963       C  0.81161551  0.72436998  0.93118253     0.17000
C1964       C  0.81892698  0.71556827  0.94519044     0.22800
C1965       C  0.83391727  0.70505592  0.94306509    -0.33400
C1966       C  0.84100010  0.70431528  0.92608306     0.16900
O1967       O  0.84308924  0.71142936  0.89760543    -0.25400
C1968       C  0.85593881  0.70049361  0.90212612     0.06700
C1969       C  0.85520177  0.69552530  0.91965795    -0.30300
O1970       O  0.81028197  0.71825700  0.95995720    -0.22200
C1971       C  0.79706940  0.72870388  0.95533233    -0.02200
C1972       C  0.79719823  0.73285917  0.93755264    -0.16600
H1973       H  0.81321074  0.73108490  0.90343594     0.21400
H1974       H  0.83967414  0.69795421  0.95391433     0.19800
H1975       H  0.86411660  0.68704115  0.92671741     0.19700
H1976       H  0.78816065  0.74117634  0.93044794     0.15600
C1977       C  0.70393022  0.82985600  0.91276213     0.31000
C1978       C  0.70473114  0.81213448  0.91761414    -0.35300
C1979       C  0.71412519  0.80834629  0.93298497     0.17000
C1980       C  0.72195260  0.82113225  0.94311823     0.22800
C1981       C  0.72125728  0.83887223  0.93819678    -0.33400
C1982       C  0.71208408  0.84263904  0.92265089     0.16900
O1983       O  0.69635603  0.83621768  0.89855405    -0.25400
C1984       C  0.69988288  0.85327654  0.89919292     0.06700
C1985       C  0.70957969  0.85804522  0.91392267    -0.30300
O1986       O  0.73003988  0.81459544  0.95699264    -0.22200
C1987       C  0.72755521  0.79737068  0.95558375    -0.02200
C1988       C  0.71778443  0.79275645  0.94086641    -0.16600
H1989       H  0.69868776  0.80195821  0.90977911     0.21400
H1990       H  0.72763929  0.84900230  0.94581857     0.19800
H1991       H  0.71439869  0.87091767  0.91742344     0.19700
H1992       H  0.71389479  0.77978296  0.93664396     0.15600
C1993       C  0.66672429  0.79869560  0.08255750     0.31000
C1994       C  0.68151415  0.80384553  0.07283978    -0.35300
C1995       C  0.68894346  0.79095976  0.06195997     0.17000
C1996       C  0.68233666  0.77416467  0.06084520     0.22800
C1997       C  0.66749542  0.76909850  0.07041232    -0.33400
C1998       C  0.66006291  0.78197923  0.08119091     0.16900
O1999       O  0.65769986  0.80850654  0.09361196    -0.25400
C2000       C  0.64510148  0.79790590  0.09948147     0.06700
C2001       C  0.64589595  0.78127852  0.09193948    -0.30300
O2002       O  0.69147187  0.76410767  0.05017280    -0.22200
C2003       C  0.70405345  0.77459541  0.04420601    -0.02200
C2004       C  0.70310858  0.79149451  0.05104435    -0.16600
H2005       H  0.68687107  0.81693994  0.07372851     0.21400
H2006       H  0.66215975  0.75598959  0.06957978     0.19800
H2007       H  0.63727059  0.77021261  0.09361134     0.19700
H2008       H  0.71173652  0.80245928  0.04852052     0.15600
C2009       C  0.78182419  0.66546663  0.08775467     0.31000
C2010       C  0.76731757  0.67460176  0.08099383    -0.35300
C2011       C  0.77099677  0.68725632  0.06813938     0.17000
C2012       C  0.78779796  0.69074554  0.06240112     0.22800
C2013       C  0.80228387  0.68167151  0.06922529    -0.33400
C2014       C  0.79859466  0.66897371  0.08199115     0.16900
O2015       O  0.78142761  0.65291937  0.09965843    -0.25400
C2016       C  0.79817382  0.64828563  0.10156305     0.06700
C2017       C  0.80940963  0.65788790  0.09085479    -0.30300
O2018       O  0.78820699  0.70275200  0.04995913    -0.22200
C2019       C  0.77143977  0.70701888  0.04761947    -0.02200
C2020       C  0.76014737  0.69781836  0.05863038    -0.16600
H2021       H  0.75407213  0.67188504  0.08530183     0.21400
H2022       H  0.81550636  0.68418329  0.06472827     0.19800
H2023       H  0.82351357  0.65686458  0.08970377     0.19700
H2024       H  0.74598818  0.69858045  0.05929045     0.15600
C2025       C  0.68544125  0.68817685  0.97703994     0.31000
C2026       C  0.67116700  0.67769133  0.98197112    -0.35300
C2027       C  0.66377481  0.66732095  0.96869929     0.17000
C2028       C  0.66994803  0.66721667  0.95173681     0.22800
C2029       C  0.68414859  0.67785609  0.94673705    -0.33400
C2030       C  0.69155320  0.68828780  0.96002025     0.16900
O2031       O  0.69436405  0.69877028  0.98739865    -0.25400
C2032       C  0.70632429  0.70589753  0.97689817     0.06700
C2033       C  0.70517282  0.69989934  0.95967942    -0.30300
O2034       O  0.66103746  0.65642050  0.94152037    -0.22200
C2035       C  0.64900813  0.64940563  0.95208603    -0.02200
C2036       C  0.65003864  0.65597137  0.96913674    -0.16600
H2037       H  0.66619627  0.67758750  0.99525205     0.21400
H2038       H  0.68907966  0.67798434  0.93344357     0.19800
H2039       H  0.71323530  0.70351258  0.94858923     0.19700
H2040       H  0.64175579  0.65336512  0.98029255     0.15600
C2041       C  0.62945820  0.53118782  0.11774497     0.31000
C2042       C  0.63801318  0.51623634  0.11144336    -0.35300
C2043       C  0.63061951  0.50019672  0.11631919     0.17000
C2044       C  0.61574126  0.49894524  0.12659787     0.22800
C2045       C  0.60719842  0.51390875  0.13289695    -0.33400
C2046       C  0.61467043  0.52994828  0.12811194     0.16900
O2047       O  0.63427569  0.54750421  0.11503415    -0.25400
C2048       C  0.62246390  0.55680131  0.12382959     0.06700
C2049       C  0.60994314  0.54660300  0.13223042    -0.30300
O2050       O  0.61136487  0.48261086  0.12994101    -0.22200
C2051       C  0.62366580  0.47343997  0.12175652    -0.02200
C2052       C  0.63596735  0.48355644  0.11302500    -0.16600
H2053       H  0.64973465  0.51705252  0.10349058     0.21400
H2054       H  0.59568265  0.51309516  0.14114230     0.19800
H2055       H  0.59901524  0.55085496  0.14022123     0.19700
H2056       H  0.64731853  0.47922623  0.10570245     0.15600
C2057       C  0.53018095  0.62935260  0.11570378     0.31000
C2058       C  0.51526289  0.63467952  0.10636492    -0.35300
C2059       C  0.49910798  0.63004340  0.11375293     0.17000
C2060       C  0.49776228  0.62085164  0.12930682     0.22800
C2061       C  0.51265842  0.61548135  0.13858371    -0.33400
C2062       C  0.52878122  0.62005539  0.13115972     0.16900
O2063       O  0.54660378  0.63228217  0.11125348    -0.25400
C2064       C  0.55578221  0.62467864  0.12398259     0.06700
C2065       C  0.54539809  0.61686981  0.13672108    -0.30300
O2066       O  0.48139975  0.61839441  0.13414106    -0.22200
C2067       C  0.47224377  0.62606384  0.12149070    -0.02200
C2068       C  0.48243176  0.63348252  0.10839812    -0.16600
H2069       H  0.51618789  0.64200115  0.09425481     0.21400
H2070       H  0.51173576  0.60833591  0.15079957     0.19800
H2071       H  0.54951432  0.60987029  0.14835538     0.19700
H2072       H  0.47814883  0.64067500  0.09695124     0.15600
C2073       C  0.71697517  0.61917706  0.11958223     0.31000
C2074       C  0.73200748  0.61199840  0.11188978    -0.35300
C2075       C  0.74801777  0.61850082  0.11805089     0.17000
C2076       C  0.74917466  0.63121287  0.13092450     0.22800
C2077       C  0.73411690  0.63842177  0.13858955    -0.33400
C2078       C  0.71809009  0.63190793  0.13240835     0.16900
O2079       O  0.70067794  0.61499383  0.11578798    -0.25400
C2080       C  0.69123050  0.62518115  0.12628852     0.06700
C2081       C  0.70133438  0.63599507  0.13693702    -0.30300
O2082       O  0.76551597  0.63522925  0.13481455    -0.22200
C2083       C  0.77477103  0.62495526  0.12425729    -0.02200
C2084       C  0.76471521  0.61427416  0.11353567    -0.16600
H2085       H  0.73126633  0.60201432  0.10183024     0.21400
H2086       H  0.73484899  0.64836983  0.14868400     0.19800
H2087       H  0.69696029  0.64547655  0.14654485     0.19700
H2088       H  0.76912151  0.60476240  0.10398062     0.15600
C2089       C  0.62880725  0.63118834  0.21772619     0.31000
C2090       C  0.63530402  0.63947249  0.23277568    -0.35300
C2091       C  0.62909653  0.63299300  0.24876547     0.17000
C2092       C  0.61731215  0.61926463  0.24987193     0.22800
C2093       C  0.61081815  0.61099688  0.23481939    -0.33400
C2094       C  0.61702917  0.61749221  0.21883924     0.16900
O2095       O  0.63273575  0.63520127  0.20141988    -0.25400
C2096       C  0.62333067  0.62394682  0.19200532     0.06700
C2097       C  0.61335530  0.61257005  0.20212512    -0.30300
O2098       O  0.61375464  0.61491450  0.26617877    -0.22200
C2099       C  0.62339859  0.62601798  0.27548917    -0.02200
C2100       C  0.63313248  0.63764206  0.26548823    -0.16600
H2101       H  0.64461145  0.65015415  0.23206721     0.21400
H2102       H  0.60167373  0.60017550  0.23552369     0.19800
H2103       H  0.60455170  0.60232080  0.19777755     0.19700
H2104       H  0.64216870  0.64763191  0.26993934     0.15600
C2105       C  0.61482832  0.74903274  0.11814746     0.31000
C2106       C  0.60674553  0.73376424  0.11195398    -0.35300
C2107       C  0.61456286  0.71798902  0.11706932     0.17000
C2108       C  0.62925300  0.71727418  0.12764771     0.22800
C2109       C  0.63745608  0.73254775  0.13369600    -0.33400
C2110       C  0.62970073  0.74833498  0.12851216     0.16900
O2111       O  0.60977807  0.76518857  0.11490254    -0.25400
C2112       C  0.62164324  0.77482782  0.12322457     0.06700
C2113       C  0.63436673  0.76518548  0.13191406    -0.30300
O2114       O  0.63410984  0.70110127  0.13112171    -0.22200
C2115       C  0.62245907  0.69136953  0.12254998    -0.02200
C2116       C  0.61002319  0.70114717  0.11351804    -0.16600
H2117       H  0.59517120  0.73416015  0.10373699     0.21400
H2118       H  0.64904162  0.73214539  0.14189706     0.19800
H2119       H  0.64542710  0.76994362  0.13943174     0.19700
H2120       H  0.59910078  0.69650344  0.10571973     0.15600
C2121       C  0.61685597  0.62420961  0.03165283     0.31000
C2122       C  0.60728568  0.62819852  0.01653567    -0.35300
C2123       C  0.61605459  0.62559372  0.00067475     0.17000
C2124       C  0.63311625  0.61952529  0.99972152     0.22800
C2125       C  0.64257381  0.61520455  0.01485733    -0.33400
C2126       C  0.63375425  0.61774452  0.03074524     0.16900
O2127       O  0.61150849  0.62650573  0.04785973    -0.25400
C2128       C  0.62506973  0.62127718  0.05743913     0.06700
C2129       C  0.63924877  0.61554517  0.04754925    -0.30300
O2130       O  0.63897093  0.61879916  0.98350884    -0.22200
C2131       C  0.62540768  0.62438488  0.97413618    -0.02200
C2132       C  0.61076622  0.62868152  0.98399401    -0.16600
H2133       H  0.59405938  0.63331948  0.01711801     0.21400
H2134       H  0.65595929  0.61051648  0.01429955     0.19800
H2135       H  0.65190717  0.61099593  0.05209244     0.19700
H2136       H  0.59824651  0.63361367  0.97947918     0.15600
C2137       C  0.31428754  0.81268368  0.52172686     0.31000
C2138       C  0.32645558  0.82520168  0.51604164    -0.35300
C2139       C  0.33508019  0.83463609  0.52924455     0.17000
C2140       C  0.33196230  0.83204549  0.54682496     0.22800
C2141       C  0.31973769  0.81951586  0.55255068    -0.33400
C2142       C  0.31111753  0.80999764  0.53933061     0.16900
O2143       O  0.30469504  0.80249801  0.51158640    -0.25400
C2144       C  0.29520632  0.79312801  0.52280131     0.06700
C2145       C  0.29867082  0.79719841  0.54026519    -0.30300
O2146       O  0.34160389  0.84237147  0.55683495    -0.22200
C2147       C  0.35114537  0.85168308  0.54553196    -0.02200
C2148       C  0.34745130  0.84737292  0.52812966    -0.16600
H2149       H  0.32903394  0.82742514  0.50227380     0.21400
H2150       H  0.31714064  0.81733673  0.56631935     0.19800
H2151       H  0.29276991  0.79164847  0.55190097     0.19700
H2152       H  0.35266357  0.85266386  0.51613980     0.15600
C2153       C  0.21836563  0.83420543  0.41286223     0.31000
C2154       C  0.23288697  0.82559398  0.42016338    -0.35300
C2155       C  0.22920630  0.81329012  0.43328708     0.17000
C2156       C  0.21237707  0.80966246  0.43884706     0.22800
C2157       C  0.19782535  0.81826478  0.43149390    -0.33400
C2158       C  0.20152482  0.83061581  0.41836548     0.16900
O2159       O  0.21885592  0.84621841  0.40048742    -0.25400
C2160       C  0.20212232  0.85048206  0.39792656     0.06700
C2161       C  0.19073155  0.84114092  0.40873104    -0.30300
O2162       O  0.21201418  0.79778664  0.45141522    -0.22200
C2163       C  0.22883404  0.79377582  0.45393989    -0.02200
C2164       C  0.24010651  0.80301419  0.44299797    -0.16600
H2165       H  0.24615237  0.82835501  0.41594119     0.21400
H2166       H  0.18456239  0.81556889  0.43575935     0.19800
H2167       H  0.17658150  0.84195022  0.40940381     0.19700
H2168       H  0.25427206  0.80232379  0.44237638     0.15600
C2169       C  0.16054199  0.79471196  0.57712840     0.31000
C2170       C  0.16678711  0.79579591  0.55988034    -0.35300
C2171       C  0.18173850  0.78581112  0.55609162     0.17000
C2172       C  0.19019872  0.77570288  0.56849109     0.22800
C2173       C  0.18383887  0.77448099  0.58570982    -0.33400
C2174       C  0.16868565  0.78422868  0.58941535     0.16900
O2175       O  0.14680391  0.80300286  0.58353670    -0.25400
C2176       C  0.14593501  0.79753586  0.60006675     0.06700
C2177       C  0.15923579  0.78585698  0.60446358    -0.30300
O2178       O  0.20403848  0.76754561  0.56207030    -0.22200
C2179       C  0.20425686  0.77230631  0.54529368    -0.02200
C2180       C  0.19067588  0.78360607  0.54082801    -0.16600
H2181       H  0.16037310  0.80378928  0.55006829     0.21400
H2182       H  0.19018741  0.76640707  0.59549707     0.19800
H2183       H  0.16187795  0.77982493  0.61700963     0.19700
H2184       H  0.18783215  0.78933677  0.52816408     0.15600
C2185       C  0.33360584  0.70047360  0.41947944     0.31000
C2186       C  0.32022790  0.69465675  0.43076501    -0.35300
C2187       C  0.31128803  0.70775151  0.44016292     0.17000
C2188       C  0.31527170  0.72530040  0.43848819     0.22800
C2189       C  0.32859677  0.73107272  0.42724826    -0.33400
C2190       C  0.33748435  0.71801494  0.41790055     0.16900
O2191       O  0.34387625  0.69057192  0.40967950    -0.25400
C2192       C  0.35447216  0.70191662  0.40163525     0.06700
C2193       C  0.35101463  0.71922768  0.40638207    -0.30300
O2194       O  0.30537726  0.73534313  0.44842825    -0.22200
C2195       C  0.29485633  0.72416319  0.45666752    -0.02200
C2196       C  0.29793126  0.70676073  0.45207222    -0.16600
H2197       H  0.31708531  0.68091274  0.43218496     0.21400
H2198       H  0.33185024  0.74480353  0.42593023     0.19800
H2199       H  0.35755910  0.73113635  0.40255587     0.19700
H2200       H  0.29129619  0.69515230  0.45677541     0.15600
C2201       C  0.15821992  0.67366017  0.45475505     0.31000
C2202       C  0.16379724  0.69117925  0.45485360    -0.35300
C2203       C  0.17888949  0.69479913  0.46474457     0.17000
C2204       C  0.18809435  0.68199838  0.47361922     0.22800
C2205       C  0.18242590  0.66451276  0.47365472    -0.33400
C2206       C  0.16714895  0.66095962  0.46403722     0.16900
O2207       O  0.14425231  0.66740772  0.44667488    -0.25400
C2208       C  0.14407419  0.65054760  0.45108157     0.06700
C2209       C  0.15804272  0.64579048  0.46180696    -0.30300
O2210       O  0.20206955  0.68823979  0.48168733    -0.22200
C2211       C  0.20166069  0.70529998  0.47815234    -0.02200
C2212       C  0.18747741  0.71015281  0.46775795    -0.16600
H2213       H  0.15676543  0.70130978  0.44784240     0.21400
H2214       H  0.18936653  0.65440777  0.48079397     0.19800
H2215       H  0.16107137  0.63301788  0.46714756     0.19700
H2216       H  0.18418661  0.72305711  0.46288904     0.15600
C2217       C  0.28207905  0.69114070  0.56833710     0.31000
C2218       C  0.29253102  0.68818549  0.58322253    -0.35300
C2219       C  0.29357786  0.67076472  0.58902180     0.17000
C2220       C  0.28455799  0.65726866  0.58101250     0.22800
C2221       C  0.27423400  0.66019370  0.56606498    -0.33400
C2222       C  0.27355226  0.67751962  0.56001138     0.16900
O2223       O  0.27961585  0.70630186  0.56038961    -0.25400
C2224       C  0.26962843  0.70226976  0.54663839     0.06700
C2225       C  0.26548027  0.68455063  0.54572728    -0.30300
O2226       O  0.28724067  0.64204879  0.58871166    -0.22200
C2227       C  0.29837714  0.64576957  0.60161975    -0.02200
C2228       C  0.30286196  0.66340267  0.60242047    -0.16600
H2229       H  0.29958142  0.69868704  0.58965742     0.21400
H2230       H  0.26741882  0.64964182  0.55945781     0.19800
H2231       H  0.25766072  0.67785485  0.53594730     0.19700
H2232       H  0.31150723  0.66983823  0.61166066     0.15600
C2233       C  0.83400139  0.41387465  0.21179689     0.31000
C2234       C  0.81754594  0.41499446  0.21996895    -0.35300
C2235       C  0.81025611  0.43183668  0.22113279     0.17000
C2236       C  0.81871270  0.44656470  0.21491483     0.22800
C2237       C  0.83500727  0.44540473  0.20651536    -0.33400
C2238       C  0.84216590  0.42856755  0.20512554     0.16900
O2239       O  0.84358264  0.39960635  0.20993260    -0.25400
C2240       C  0.85793225  0.40525336  0.20177524     0.06700
C2241       C  0.85770142  0.42310198  0.19830034    -0.30300
O2242       O  0.80993574  0.46108397  0.21808279    -0.22200
C2243       C  0.79554508  0.45560511  0.22623171    -0.02200
C2244       C  0.79496276  0.43751505  0.22841921    -0.16600
H2245       H  0.81101021  0.40358237  0.22526916     0.21400
H2246       H  0.84174765  0.45687460  0.20161069     0.19800
H2247       H  0.86785778  0.43098217  0.19231057     0.19700
H2248       H  0.78496515  0.42977403  0.23484542     0.15600
C2249       C  0.81766466  0.53174394  0.30500081     0.31000
C2250       C  0.83345438  0.54087296  0.30761587    -0.35300
C2251       C  0.83928102  0.54217555  0.32504291     0.17000
C2252       C  0.83034330  0.53475299  0.33890322     0.22800
C2253       C  0.81449902  0.52577922  0.33630832    -0.33400
C2254       C  0.80853717  0.52472213  0.31894373     0.16900
O2255       O  0.80968348  0.52908323  0.28985343    -0.25400
C2256       C  0.79514868  0.52045118  0.29421027     0.06700
C2257       C  0.79374231  0.51742300  0.31213007    -0.30300
O2258       O  0.83813589  0.53754444  0.35409418    -0.22200
C2259       C  0.85220898  0.54695390  0.34994993    -0.02200
C2260       C  0.85351508  0.55039201  0.33209363    -0.16600
H2261       H  0.84060531  0.54669634  0.29684316     0.21400
H2262       H  0.80722911  0.52015777  0.34711003     0.19800
H2263       H  0.78335635  0.51072453  0.31909125     0.19700
H2264       H  0.86349858  0.55786967  0.32534711     0.15600
C2265       C  0.78072818  0.58672836  0.16329763     0.31000
C2266       C  0.76601777  0.57993275  0.17205633    -0.35300
C2267       C  0.76931285  0.56636462  0.18405465     0.17000
C2268       C  0.78594856  0.56000040  0.18727541     0.22800
C2269       C  0.80062835  0.56679787  0.17852946    -0.33400
C2270       C  0.79732156  0.58029476  0.16650518     0.16900
O2271       O  0.78070522  0.59932774  0.15144490    -0.25400
C2272       C  0.79751175  0.60099573  0.14695418     0.06700
C2273       C  0.80841587  0.58945878  0.15597437    -0.30300
O2274       O  0.78605482  0.54732413  0.19902081    -0.22200
C2275       C  0.76925813  0.54545678  0.20337969    -0.02200
C2276       C  0.75823292  0.55695315  0.19445556    -0.16600
H2277       H  0.75291665  0.58483383  0.16963382     0.21400
H2278       H  0.81372771  0.56186672  0.18090123     0.19800
H2279       H  0.82248444  0.58795650  0.15491617     0.19700
H2280       H  0.74413636  0.55821621  0.19553361     0.15600
C2281       C  0.71490130  0.44304447  0.31696708     0.31000
C2282       C  0.70597428  0.44104168  0.33291634    -0.35300
C2283       C  0.70376035  0.42378753  0.33881826     0.17000
C2284       C  0.71019952  0.40945487  0.32985148     0.22800
C2285       C  0.71900522  0.41144941  0.31379645    -0.33400
C2286       C  0.72092867  0.42871379  0.30771642     0.16900
O2287       O  0.71843273  0.45800408  0.30907481    -0.25400
C2288       C  0.72661716  0.45322492  0.29442968     0.06700
C2289       C  0.72850595  0.43514854  0.29286056    -0.30300
O2290       O  0.70727690  0.39457956  0.33820513    -0.22200
C2291       C  0.69865390  0.39947654  0.35257995    -0.02200
C2292       C  0.69597646  0.41746054  0.35356417    -0.16600
H2293       H  0.70109833  0.45217673  0.34023119     0.21400
H2294       H  0.72404008  0.40032751  0.30657167     0.19800
H2295       H  0.73474283  0.42786016  0.28240634     0.19700
H2296       H  0.68978997  0.42482433  0.36399460     0.15600
C2297       C  0.67073916  0.45171806  0.16189848     0.31000
C2298       C  0.68544929  0.44710261  0.17200677    -0.35300
C2299       C  0.69130906  0.45975612  0.18404965     0.17000
C2300       C  0.68336714  0.47590058  0.18585782     0.22800
C2301       C  0.66860558  0.48043991  0.17586613    -0.33400
C2302       C  0.66269217  0.46774428  0.16395333     0.16900
O2303       O  0.66285432  0.44183832  0.15005370    -0.25400
C2304       C  0.64955318  0.45166431  0.14438621     0.06700
C2305       C  0.64880026  0.46789093  0.15278597    -0.30300
O2306       O  0.69119974  0.48587973  0.19761082    -0.22200
C2307       C  0.70423938  0.47595113  0.20358457    -0.02200
C2308       C  0.70491309  0.45952233  0.19567195    -0.16600
H2309       H  0.69182501  0.43451581  0.17063570     0.21400
H2310       H  0.66216801  0.49299218  0.17728788     0.19800
H2311       H  0.63925557  0.47824082  0.15149421     0.19700
H2312       H  0.71425969  0.44909496  0.19792616     0.15600
C2313       C  0.66618371  0.58137933  0.29842514     0.31000
C2314       C  0.67862336  0.56886061  0.30377017    -0.35300
C2315       C  0.68730891  0.55981462  0.29025217     0.17000
C2316       C  0.68389435  0.56284815  0.27274493     0.22800
C2317       C  0.67146185  0.57526455  0.26745491    -0.33400
C2318       C  0.66289843  0.58430914  0.28093432     0.16900
O2319       O  0.65672145  0.59161925  0.30870546    -0.25400
C2320       C  0.64722292  0.60129626  0.29764254     0.06700
C2321       C  0.65067292  0.59716797  0.28014636    -0.30300
O2322       O  0.69360031  0.55315581  0.26226529    -0.22200
C2323       C  0.70344731  0.54374896  0.27313925    -0.02200
C2324       C  0.70010016  0.54731078  0.29074335    -0.16600
H2325       H  0.68144780  0.56646594  0.31746054     0.21400
H2326       H  0.66876740  0.57782043  0.25376487     0.19800
H2327       H  0.64545270  0.60260109  0.26824531     0.19700
H2328       H  0.70624701  0.54159092  0.30217787     0.15600
C2329       C  0.16926961  0.16784766  0.95169035     0.31000
C2330       C  0.18377349  0.17818483  0.94697402    -0.35300
C2331       C  0.19093055  0.18869723  0.96031669     0.17000
C2332       C  0.18433040  0.18894840  0.97715182     0.22800
C2333       C  0.16968912  0.17881008  0.98177520    -0.33400
C2334       C  0.16251138  0.16837136  0.96841928     0.16900
O2335       O  0.16077632  0.15674852  0.94145953    -0.25400
C2336       C  0.14836535  0.14998973  0.95174362     0.06700
C2337       C  0.14873414  0.15704295  0.96863457    -0.30300
O2338       O  0.19326414  0.19941525  0.98766001    -0.22200
C2339       C  0.20568164  0.20611710  0.97740339    -0.02200
C2340       C  0.20484034  0.19993593  0.96023300    -0.16600
H2341       H  0.18918820  0.17793733  0.93387098     0.21400
H2342       H  0.16436144  0.17892458  0.99491666     0.19800
H2343       H  0.14020959  0.15452389  0.97962408     0.19700
H2344       H  0.21335602  0.20312391  0.94935128     0.15600
C2345       C  0.19255970  0.27302002  0.06959539     0.31000
C2346       C  0.18233123  0.26779057  0.08391431    -0.35300
C2347       C  0.17253565  0.28100554  0.09207833     0.17000
C2348       C  0.17274114  0.29819664  0.08663174     0.22800
C2349       C  0.18327140  0.30352693  0.07248429    -0.33400
C2350       C  0.19308322  0.29028007  0.06425073     0.16900
O2351       O  0.20218965  0.26266997  0.05966928    -0.25400
C2352       C  0.20910044  0.27341518  0.04782760     0.06700
C2353       C  0.20397096  0.29078574  0.05007707    -0.30300
O2354       O  0.16187347  0.30813807  0.09574758    -0.22200
C2355       C  0.15452151  0.29714770  0.10717263    -0.02200
C2356       C  0.16102158  0.28012813  0.10559737    -0.16600
H2357       H  0.18175327  0.25428231  0.08816318     0.21400
H2358       H  0.18352339  0.31696241  0.06799073     0.19800
H2359       H  0.20751184  0.30204765  0.04223451     0.19700
H2360       H  0.15804459  0.26856742  0.11313282     0.15600
C2361       C  0.28486834  0.16201814  0.08531216     0.31000
C2362       C  0.27020338  0.17059421  0.07820735    -0.35300
C2363       C  0.27366682  0.18309908  0.06516833     0.17000
C2364       C  0.29041533  0.18696203  0.05952583     0.22800
C2365       C  0.30507847  0.17831164  0.06659070    -0.33400
C2366       C  0.30160170  0.16576360  0.07959509     0.16900
O2367       O  0.28466018  0.14999924  0.09773211    -0.25400
C2368       C  0.30147728  0.14586061  0.10001296     0.06700
C2369       C  0.31260252  0.15530029  0.08902756    -0.30300
O2370       O  0.29062050  0.19924460  0.04732246    -0.22200
C2371       C  0.27376549  0.20327302  0.04505263    -0.02200
C2372       C  0.26264381  0.19360594  0.05581967    -0.16600
H2373       H  0.25700660  0.16774704  0.08258339     0.21400
H2374       H  0.31828754  0.18119838  0.06228389     0.19800
H2375       H  0.32675084  0.15466495  0.08816869     0.19700
H2376       H  0.24849290  0.19430906  0.05669652     0.15600
C2377       C  0.33981084  0.32885291  0.04681457     0.31000
C2378       C  0.33488513  0.31112957  0.04657536    -0.35300
C2379       C  0.31954140  0.30709643  0.03722230     0.17000
C2380       C  0.30949028  0.31967554  0.02897875     0.22800
C2381       C  0.31449756  0.33738654  0.02908864    -0.33400
C2382       C  0.33006421  0.34136476  0.03810891     0.16900
O2383       O  0.35378449  0.33550926  0.05459346    -0.25400
C2384       C  0.35317748  0.35244276  0.05051402     0.06700
C2385       C  0.33873253  0.35683630  0.04026717    -0.30300
O2386       O  0.29560911  0.31297105  0.02106605    -0.22200
C2387       C  0.29692112  0.29583850  0.02406831    -0.02200
C2388       C  0.31158343  0.29143625  0.03401401    -0.16600
H2389       H  0.34259773  0.30114306  0.05305866     0.21400
H2390       H  0.30690853  0.34733914  0.02240993     0.19800
H2391       H  0.33508462  0.36961058  0.03531261     0.19700
H2392       H  0.31573266  0.27856369  0.03827604     0.15600
C2393       C  0.33025034  0.20716767  0.91181697     0.31000
C2394       C  0.31244489  0.20871725  0.91609395    -0.35300
C2395       C  0.30870379  0.21703213  0.93204289     0.17000
C2396       C  0.32156904  0.22322098  0.94318335     0.22800
C2397       C  0.33939935  0.22193361  0.93876245    -0.33400
C2398       C  0.34314035  0.21381620  0.92266832     0.16900
O2399       O  0.33669392  0.19967195  0.89763933    -0.25400
C2400       C  0.35391803  0.20179345  0.89928864     0.06700
C2401       C  0.35870718  0.21056697  0.91454323    -0.30300
O2402       O  0.31503876  0.23016255  0.95763851    -0.22200
C2403       C  0.29777187  0.22854957  0.95558783    -0.02200
C2404       C  0.29309838  0.22055872  0.93987570    -0.16600
H2405       H  0.30221578  0.20374851  0.90759414     0.21400
H2406       H  0.34962808  0.22688675  0.94727016     0.19800
H2407       H  0.37176112  0.21383634  0.91905911     0.19700
H2408       H  0.28007696  0.21761688  0.93503574     0.15600
C2409       C  0.22631351  0.30947047  0.93060652     0.31000
C2410       C  0.22767872  0.31543939  0.91321811    -0.35300
C2411       C  0.21739802  0.33008499  0.90881874     0.17000
C2412       C  0.20627758  0.33811233  0.92061407     0.22800
C2413       C  0.20519051  0.33237530  0.93807354    -0.33400
C2414       C  0.21569075  0.31793297  0.94255352     0.16900
O2415       O  0.23456915  0.29589021  0.93752971    -0.25400
C2416       C  0.22939418  0.29583972  0.95421728     0.06700
C2417       C  0.21773076  0.30932545  0.95808114    -0.30300
O2418       O  0.19728703  0.35109515  0.91351189    -0.22200
C2419       C  0.20295873  0.35163286  0.89702331    -0.02200
C2420       C  0.21553699  0.33891502  0.89338624    -0.16600
H2421       H  0.23611305  0.30906706  0.90375421     0.21400
H2422       H  0.19667478  0.33868775  0.94750359     0.19800
H2423       H  0.21149756  0.31220708  0.97049588     0.19700
H2424       H  0.22201065  0.33628790  0.88103901     0.15600
C2425       C  0.36662405  0.46895790  0.88039776     0.31000
C2426       C  0.35702285  0.48391731  0.88510854    -0.35300
C2427       C  0.36456661  0.50004614  0.88059762     0.17000
C2428       C  0.38053947  0.50135630  0.87214234     0.22800
C2429       C  0.39005539  0.48640893  0.86732759    -0.33400
C2430       C  0.38244843  0.47029919  0.87172229     0.16900
O2431       O  0.36209754  0.45255730  0.88338153    -0.25400
C2432       C  0.37513312  0.44329587  0.87640984     0.06700
C2433       C  0.38813631  0.45364431  0.86894057    -0.30300
O2434       O  0.38531809  0.51771980  0.86948408    -0.22200
C2435       C  0.37216070  0.52692020  0.87619574    -0.02200
C2436       C  0.35886194  0.51673384  0.88328807    -0.16600
H2437       H  0.34456595  0.48304156  0.89184561     0.21400
H2438       H  0.40254339  0.48728328  0.86064854     0.19800
H2439       H  0.40007006  0.44948251  0.86248717     0.19700
H2440       H  0.34692696  0.52104521  0.88962911     0.15600
C2441       C  0.46920167  0.37946475  0.86905755     0.31000
C2442       C  0.48437067  0.38748805  0.86256878    -0.35300
C2443       C  0.50027733  0.38032639  0.86825876     0.17000
C2444       C  0.50122036  0.36614933  0.87949354     0.22800
C2445       C  0.48603987  0.35809993  0.88594727    -0.33400
C2446       C  0.47012739  0.36534545  0.88033003     0.16900
O2447       O  0.45295572  0.38432298  0.86581789    -0.25400
C2448       C  0.44337319  0.37321149  0.87517889     0.06700
C2449       C  0.45333349  0.36109184  0.88445398    -0.30300
O2450       O  0.51748329  0.36193416  0.88349994    -0.22200
C2451       C  0.52691509  0.37361705  0.87473553    -0.02200
C2452       C  0.51703838  0.38535253  0.86499990    -0.16600
H2453       H  0.48380817  0.39870234  0.85391135     0.21400
H2454       H  0.48659844  0.34714734  0.89493372     0.19800
H2455       H  0.44884231  0.35079552  0.89310583     0.19700
H2456       H  0.52159565  0.39614793  0.85702789     0.15600
C2457       C  0.28209452  0.37871189  0.88167184     0.31000
C2458       C  0.26654818  0.38343691  0.89021226    -0.35300
C2459       C  0.25097599  0.37893975  0.88157598     0.17000
C2460       C  0.25066767  0.37045975  0.86555459     0.22800
C2461       C  0.26622150  0.36559255  0.85708899    -0.33400
C2462       C  0.28180041  0.36999758  0.86579930     0.16900
O2463       O  0.29815223  0.38173308  0.88732215    -0.25400
C2464       C  0.30824910  0.37474755  0.87496116     0.06700
C2465       C  0.29879983  0.36721251  0.86129421    -0.30300
O2466       O  0.23459686  0.36752989  0.85988901    -0.22200
C2467       C  0.22464647  0.37417323  0.87252851    -0.02200
C2468       C  0.23401081  0.38138070  0.88634824    -0.16600
H2469       H  0.26658730  0.39013137  0.90272731     0.21400
H2470       H  0.26618337  0.35881506  0.84461852     0.19800
H2471       H  0.30376526  0.36076859  0.84966627     0.19700
H2472       H  0.22897845  0.38737635  0.89817853     0.15600
C2473       C  0.37935312  0.38155517  0.78328473     0.31000
C2474       C  0.38256947  0.39072698  0.76769709    -0.35300
C2475       C  0.37808551  0.38195005  0.75218487     0.17000
C2476       C  0.37111761  0.36522807  0.75206417     0.22800
C2477       C  0.36789328  0.35610286  0.76759679    -0.33400
C2478       C  0.37216852  0.36494773  0.78305198     0.16900
O2479       O  0.38218029  0.38731026  0.79933658    -0.25400
C2480       C  0.37656891  0.37424369  0.80939084     0.06700
C2481       C  0.37021124  0.36002451  0.79998319    -0.30300
O2482       O  0.36797014  0.35943792  0.73615624    -0.22200
C2483       C  0.37274805  0.37270938  0.72602701    -0.02200
C2484       C  0.37926399  0.38704725  0.73513974    -0.16600
H2485       H  0.38801499  0.40382065  0.76767217     0.21400
H2486       H  0.36228403  0.34307555  0.76763096     0.19800
H2487       H  0.36482781  0.34787617  0.80493734     0.19700
H2488       H  0.38421147  0.39926226  0.72992790     0.15600
C2489       C  0.37950032  0.36923103  0.00191257     0.31000
C2490       C  0.38552411  0.36055098  0.98690203    -0.35300
C2491       C  0.38138598  0.36848447  0.97089351     0.17000
C2492       C  0.37178962  0.38378198  0.96971688     0.22800
C2493       C  0.36586058  0.39252780  0.98473728    -0.33400
C2494       C  0.37014596  0.38470354  0.00076843     0.16900
O2495       O  0.38211504  0.36428687  0.01821606    -0.25400
C2496       C  0.37447083  0.37684074  0.02751845     0.06700
C2497       C  0.36676519  0.38988377  0.01749493    -0.30300
O2498       O  0.36902135  0.38861050  0.95338547    -0.22200
C2499       C  0.37707289  0.37632982  0.94402249    -0.02200
C2500       C  0.38508333  0.36352065  0.95419820    -0.16600
H2501       H  0.39296205  0.34849567  0.98765951     0.21400
H2502       H  0.35844316  0.40459294  0.98397249     0.19800
H2503       H  0.35989962  0.40147252  0.02192515     0.19700
H2504       H  0.39221333  0.35203411  0.94989319     0.15600
C2505       C  0.38160371  0.28222673  0.88489164     0.31000
C2506       C  0.38960812  0.26737197  0.89215514    -0.35300
C2507       C  0.38381132  0.25121180  0.88566174     0.17000
C2508       C  0.37099307  0.24982553  0.87290726     0.22800
C2509       C  0.36292120  0.26465349  0.86574686    -0.33400
C2510       C  0.36874293  0.28078049  0.87221656     0.16900
O2511       O  0.38532110  0.29863648  0.88867584    -0.25400
C2512       C  0.37469977  0.30776846  0.87829961     0.06700
C2513       C  0.36404748  0.29736573  0.86779864    -0.30300
O2514       O  0.36769578  0.23349311  0.86858421    -0.22200
C2515       C  0.37855662  0.22438547  0.87866553    -0.02200
C2516       C  0.38886264  0.23457338  0.88965341    -0.16600
H2517       H  0.39975828  0.26835794  0.90203674     0.21400
H2518       H  0.35292132  0.26368044  0.85570975     0.19800
H2519       H  0.35448809  0.30144400  0.85812572     0.19700
H2520       H  0.39857155  0.23032007  0.89908693     0.15600
C2521       C  0.21058991  0.43928348  0.81056229     0.31000
C2522       C  0.19603407  0.43123026  0.81848927    -0.35300
C2523       C  0.19978067  0.41768275  0.83039511     0.17000
C2524       C  0.21666277  0.41241845  0.83419684     0.22800
C2525       C  0.23118341  0.42047726  0.82632771    -0.33400
C2526       C  0.22745646  0.43403384  0.81450727     0.16900
O2527       O  0.21019957  0.45205328  0.79887198    -0.25400
C2528       C  0.22705256  0.45503842  0.79536314     0.06700
C2529       C  0.23834525  0.44424395  0.80477672    -0.30300
O2530       O  0.21719665  0.39965183  0.84581451    -0.22200
C2531       C  0.20044296  0.39661575  0.84962981    -0.02200
C2532       C  0.18900900  0.40746971  0.84035439    -0.16600
H2533       H  0.18272978  0.43524146  0.81558276     0.21400
H2534       H  0.24448684  0.41647238  0.82925694     0.19800
H2535       H  0.25252782  0.44380648  0.80429583     0.19700
H2536       H  0.17484169  0.40793784  0.84098258     0.15600
C2537       C  0.31054169  0.54011681  0.80974266     0.31000
C2538       C  0.31736460  0.55467397  0.81878520    -0.35300
C2539       C  0.32984024  0.55102624  0.83188454     0.17000
C2540       C  0.33531344  0.53424868  0.83574507     0.22800
C2541       C  0.32858856  0.51973652  0.82666221    -0.33400
C2542       C  0.31607230  0.52335757  0.81365872     0.16900
O2543       O  0.29826329  0.54035454  0.79746539    -0.25400
C2544       C  0.29588988  0.52350196  0.79351328     0.06700
C2545       C  0.30670089  0.51239377  0.80314852    -0.30300
O2546       O  0.34701049  0.53381124  0.84850316    -0.22200
C2547       C  0.34911596  0.55053105  0.85300661    -0.02200
C2548       C  0.33871654  0.56182277  0.84305128    -0.16600
H2549       H  0.31307949  0.56789587  0.81597200     0.21400
H2550       H  0.33268585  0.50649821  0.82967311     0.19800
H2551       H  0.30726404  0.49822993  0.80275111     0.19700
H2552       H  0.33784533  0.57594791  0.84383831     0.15600
C2553       C  0.16818895  0.58977574  0.78748734     0.31000
C2554       C  0.18364677  0.58737609  0.77776593    -0.35300
C2555       C  0.19034861  0.57023889  0.77726440     0.17000
C2556       C  0.18225282  0.55634397  0.78552457     0.22800
C2557       C  0.16700358  0.55881472  0.79554605    -0.33400
C2558       C  0.16044760  0.57599346  0.79624834     0.16900
O2559       O  0.15941622  0.60458416  0.78936659    -0.25400
C2560       C  0.14598244  0.60028496  0.79963446     0.06700
C2561       C  0.14606715  0.58270040  0.80444714    -0.30300
O2562       O  0.19034994  0.54130783  0.78267873    -0.22200
C2563       C  0.20398869  0.54566315  0.77269822    -0.02200
C2564       C  0.20470261  0.56350587  0.76901169    -0.16600
H2565       H  0.18992449  0.59809478  0.77093167     0.21400
H2566       H  0.16059639  0.54805908  0.80219938     0.19800
H2567       H  0.13665030  0.57580055  0.81249753     0.19700
H2568       H  0.21419003  0.57041251  0.76104821     0.15600
C2569       C  0.19302316  0.46684275  0.68068648     0.31000
C2570       C  0.19070405  0.45754109  0.66492716    -0.35300
C2571       C  0.17338657  0.45616893  0.65874357     0.17000
C2572       C  0.15936462  0.46379819  0.66725398     0.22800
C2573       C  0.16165887  0.47293296  0.68309049    -0.33400
C2574       C  0.17891208  0.47396659  0.68947710     0.16900
O2575       O  0.20803540  0.46959487  0.68891922    -0.25400
C2576       C  0.20346677  0.47836878  0.70332597     0.06700
C2577       C  0.18549057  0.48139154  0.70437726    -0.30300
O2578       O  0.14434447  0.46108644  0.65906251    -0.22200
C2579       C  0.14872205  0.45131406  0.64528219    -0.02200
C2580       C  0.16661308  0.44778859  0.64443875    -0.16600
H2581       H  0.20162250  0.45163131  0.65805739     0.21400
H2582       H  0.15071479  0.47869561  0.69004254     0.19800
H2583       H  0.17835191  0.48821894  0.71456107     0.19700
H2584       H  0.17359222  0.44029610  0.63461860     0.15600
C2585       C  0.30757111  0.43511793  0.71240504     0.31000
C2586       C  0.31417358  0.42572745  0.69798735    -0.35300
C2587       C  0.32768014  0.41374172  0.70161477     0.17000
C2588       C  0.33421461  0.41116429  0.71827045     0.22800
C2589       C  0.32760379  0.42050126  0.73268445    -0.33400
C2590       C  0.31410163  0.43246191  0.72907126     0.16900
O2591       O  0.29509044  0.44712048  0.71201276    -0.25400
C2592       C  0.29356822  0.45218983  0.72866010     0.06700
C2593       C  0.30504840  0.44345498  0.73984833    -0.30300
O2594       O  0.34675647  0.39928390  0.71870191    -0.22200
C2595       C  0.34840468  0.39411494  0.70211059    -0.02200
C2596       C  0.33680709  0.40271435  0.69089188    -0.16600
H2597       H  0.30915536  0.42765860  0.68485171     0.21400
H2598       H  0.33265021  0.41857187  0.74581264     0.19800
H2599       H  0.30661009  0.44511081  0.75385919     0.19700
H2600       H  0.33523101  0.40104443  0.67689268     0.15600
C2601       C  0.28439816  0.55401433  0.68107657     0.31000
C2602       C  0.29498534  0.55624294  0.66619468    -0.35300
C2603       C  0.29546306  0.57318783  0.65910306     0.17000
C2604       C  0.28586123  0.58690510  0.66596111     0.22800
C2605       C  0.27547101  0.58474491  0.68097890    -0.33400
C2606       C  0.27529636  0.56789171  0.68828309     0.16900
O2607       O  0.28200475  0.53928918  0.68979874    -0.25400
C2608       C  0.27147764  0.54386223  0.70293009     0.06700
C2609       C  0.26694964  0.56151639  0.70270880    -0.30300
O2610       O  0.28795140  0.60153077  0.65704016    -0.22200
C2611       C  0.29925325  0.59719905  0.64449095    -0.02200
C2612       C  0.30447350  0.57977914  0.64515411    -0.16600
H2613       H  0.30239721  0.54552665  0.66058650     0.21400
H2614       H  0.26810423  0.59547846  0.68661923     0.19800
H2615       H  0.25852263  0.56853138  0.71171639     0.19700
H2616       H  0.31338898  0.57296257  0.63647745     0.15600
C2617       C  0.44255373  0.22325596  0.81946105     0.31000
C2618       C  0.43693161  0.22442531  0.83694237    -0.35300
C2619       C  0.42159826  0.21516735  0.84111142     0.17000
C2620       C  0.41258881  0.20517952  0.82899923     0.22800
C2621       C  0.41807111  0.20420602  0.81146472    -0.33400
C2622       C  0.43323432  0.21370400  0.80722415     0.16900
O2623       O  0.45650024  0.23090342  0.81268012    -0.25400
C2624       C  0.45596412  0.22640190  0.79582924     0.06700
C2625       C  0.44173951  0.21576795  0.79166494    -0.30300
O2626       O  0.39893248  0.19712703  0.83589049    -0.22200
C2627       C  0.39900751  0.20226181  0.85256596    -0.02200
C2628       C  0.41280226  0.21351465  0.85655224    -0.16600
H2629       H  0.44400226  0.23204684  0.84661112     0.21400
H2630       H  0.41099927  0.19658160  0.80179951     0.19800
H2631       H  0.43823923  0.21032726  0.77902823     0.19700
H2632       H  0.41617608  0.21921598  0.86909583     0.15600
C2633       C  0.52905417  0.30846665  0.81987054     0.31000
C2634       C  0.52943282  0.31350379  0.83758113    -0.35300
C2635       C  0.53869106  0.32893752  0.84142894     0.17000
C2636       C  0.54732593  0.33857332  0.82879690     0.22800
C2637       C  0.54681859  0.33361483  0.81106899    -0.33400
C2638       C  0.53724150  0.31839049  0.80716615     0.16900
O2639       O  0.52098807  0.29462895  0.81328966    -0.25400
C2640       C  0.52380909  0.29586125  0.79610788     0.06700
C2641       C  0.53377914  0.31042392  0.79154762    -0.30300
O2642       O  0.55511597  0.35259630  0.83532350    -0.22200
C2643       C  0.55116461  0.35208247  0.85230624    -0.02200
C2644       C  0.54099062  0.33766186  0.85684417    -0.16600
H2645       H  0.52276754  0.30604354  0.84763058     0.21400
H2646       H  0.55322929  0.34124106  0.80098037     0.19800
H2647       H  0.53798834  0.31443726  0.77861207     0.19700
H2648       H  0.53599782  0.33415670  0.86964380     0.15600
C2649       C  0.58907023  0.16620619  0.78464108     0.31000
C2650       C  0.58195591  0.17467684  0.76995928    -0.35300
C2651       C  0.56896149  0.18721112  0.77339538     0.17000
C2652       C  0.56334543  0.19118746  0.79012983     0.22800
C2653       C  0.57053479  0.18275034  0.80483116    -0.33400
C2654       C  0.58352246  0.17017520  0.80138106     0.16900
O2655       O  0.60115677  0.15387237  0.78441001    -0.25400
C2656       C  0.60349932  0.14983904  0.80121603     0.06700
C2657       C  0.59281691  0.15960184  0.81237545    -0.30300
O2658       O  0.55073112  0.20303942  0.79024432    -0.22200
C2659       C  0.54822662  0.20667168  0.77335655    -0.02200
C2660       C  0.55926017  0.19724888  0.76229682    -0.16600
H2661       H  0.58614191  0.17157681  0.75675790     0.21400
H2662       H  0.56617828  0.18565412  0.81801903     0.19800
H2663       H  0.59191512  0.15895656  0.82651439     0.19700
H2664       H  0.55984366  0.19756192  0.74812070     0.15600
C2665       C  0.46892412  0.16488179  0.66251890     0.31000
C2666       C  0.48368015  0.17299331  0.66993728    -0.35300
C2667       C  0.48036505  0.18503331  0.68341368     0.17000
C2668       C  0.46365039  0.18889486  0.68915695     0.22800
C2669       C  0.44885473  0.18081346  0.68165634    -0.33400
C2670       C  0.45219157  0.16870549  0.66818397     0.16900
O2671       O  0.46911367  0.15295681  0.65005342    -0.25400
C2672       C  0.45230415  0.14896832  0.64756573     0.06700
C2673       C  0.44113631  0.15845276  0.65849627    -0.30300
O2674       O  0.46362583  0.20053205  0.70196813    -0.22200
C2675       C  0.48054378  0.20416008  0.70447163    -0.02200
C2676       C  0.49155446  0.19487436  0.69328940    -0.16600
H2677       H  0.49685555  0.17000408  0.66558363     0.21400
H2678       H  0.43568310  0.18368147  0.68609342     0.19800
H2679       H  0.42699120  0.15774574  0.65936478     0.19700
H2680       H  0.50572090  0.19535847  0.69252036     0.15600
C2681       C  0.56710086  0.27509615  0.68913753     0.31000
C2682       C  0.58217216  0.27050006  0.67973926    -0.35300
C2683       C  0.58849575  0.28309346  0.66802002     0.17000
C2684       C  0.58061190  0.29914475  0.66559218     0.22800
C2685       C  0.56561908  0.30390169  0.67525390    -0.33400
C2686       C  0.55927249  0.29126961  0.68709429     0.16900
O2687       O  0.55874208  0.26500847  0.70035121    -0.25400
C2688       C  0.54541733  0.27483017  0.70577943     0.06700
C2689       C  0.54511316  0.29137737  0.69806989    -0.30300
O2690       O  0.58863989  0.30863495  0.65351383    -0.22200
C2691       C  0.60178708  0.29843995  0.64809121    -0.02200
C2692       C  0.60241236  0.28252082  0.65699353    -0.16600
H2693       H  0.58840921  0.25786127  0.68128063     0.21400
H2694       H  0.55925468  0.31644963  0.67353132     0.19800
H2695       H  0.53564985  0.30176455  0.69999361     0.19700
H2696       H  0.61179407  0.27198459  0.65593167     0.15600
C2697       C  0.40757915  0.32353836  0.70826699     0.31000
C2698       C  0.41386570  0.30625535  0.70762758    -0.35300
C2699       C  0.42919748  0.30285906  0.71725716     0.17000
C2700       C  0.43790065  0.31562882  0.72668397     0.22800
C2701       C  0.43140310  0.33280559  0.72763373    -0.33400
C2702       C  0.41595552  0.33614357  0.71819170     0.16900
O2703       O  0.39385299  0.32980410  0.69974614    -0.25400
C2704       C  0.39326050  0.34656953  0.70453416     0.06700
C2705       C  0.40665281  0.35120411  0.71604192    -0.30300
O2706       O  0.45234450  0.30970929  0.73418336    -0.22200
C2707       C  0.45275520  0.29285687  0.72972307    -0.02200
C2708       C  0.43864120  0.28784855  0.71927911    -0.16600
H2709       H  0.40737306  0.29620266  0.69999653     0.21400
H2710       H  0.43803022  0.34291686  0.73507000     0.19800
H2711       H  0.40945673  0.36396524  0.72156269     0.19700
H2712       H  0.43590732  0.27505801  0.71378299     0.15600
C2713       C  0.42174128  0.83833596  0.20203226     0.31000
C2714       C  0.43952451  0.83366051  0.20335057    -0.35300
C2715       C  0.44321928  0.81827365  0.21276670     0.17000
C2716       C  0.43029748  0.80801273  0.22016133     0.22800
C2717       C  0.41253793  0.81281252  0.21905453    -0.33400
C2718       C  0.40887058  0.82833441  0.20986916     0.16900
O2719       O  0.41532675  0.85229183  0.19400892    -0.25400
C2720       C  0.39814652  0.85131396  0.19694434     0.06700
C2721       C  0.39340552  0.83674541  0.20680838    -0.30300
O2722       O  0.43669432  0.79403607  0.22814391    -0.22200
C2723       C  0.45398038  0.79546041  0.22604198    -0.02200
C2724       C  0.45877553  0.81033536  0.21663316    -0.16600
H2725       H  0.44978549  0.84153503  0.19753481     0.21400
H2726       H  0.40229163  0.80504070  0.22503492     0.19800
H2727       H  0.38043038  0.83299380  0.21115614     0.19700
H2728       H  0.47182968  0.81457972  0.21304078     0.15600
C2729       C  0.53536722  0.80511028  0.31681187     0.31000
C2730       C  0.54615611  0.80738730  0.33158634    -0.35300
C2731       C  0.54715640  0.82447757  0.33834498     0.17000
C2732       C  0.53788571  0.83829773  0.33127233     0.22800
C2733       C  0.52730031  0.83607155  0.31635931    -0.33400
C2734       C  0.52657441  0.81906372  0.30939144     0.16900
O2735       O  0.53246626  0.79026475  0.30840691    -0.25400
C2736       C  0.52192025  0.79481561  0.29524916     0.06700
C2737       C  0.51787746  0.81258686  0.29516213    -0.30300
O2738       O  0.54025071  0.85301737  0.34003872    -0.22200
C2739       C  0.55138376  0.84867243  0.35276316    -0.02200
C2740       C  0.55623564  0.83109607  0.35227591    -0.16600
H2741       H  0.55327979  0.79658645  0.33740033     0.21400
H2742       H  0.52012385  0.84686170  0.31058994     0.19800
H2743       H  0.50955398  0.81962712  0.28607713     0.19700
H2744       H  0.56482093  0.82413619  0.36117549     0.15600
C2745       C  0.55993648  0.78716599  0.18875675     0.31000
C2746       C  0.56720471  0.80179637  0.18032065    -0.35300
C2747       C  0.57961583  0.79825650  0.16721616     0.17000
C2748       C  0.58460591  0.78148134  0.16273266     0.22800
C2749       C  0.57738330  0.76682433  0.17120110    -0.33400
C2750       C  0.56491257  0.77036455  0.18427828     0.16900
O2751       O  0.54784826  0.78746372  0.20113320    -0.25400
C2752       C  0.54499187  0.77062867  0.20464494     0.06700
C2753       C  0.55527706  0.75939652  0.19456291    -0.30300
O2754       O  0.59635847  0.78124396  0.15004267    -0.22200
C2755       C  0.59896950  0.79809441  0.14629490    -0.02200
C2756       C  0.58885115  0.80924825  0.15661910    -0.16600
H2757       H  0.56334521  0.81503160  0.18365175     0.21400
H2758       H  0.58113137  0.75358597  0.16774565     0.19800
H2759       H  0.55545492  0.74521702  0.19465938     0.19700
H2760       H  0.58834795  0.82340950  0.15639416     0.15600
C2761       C  0.41274093  0.71440706  0.33563134     0.31000
C2762       C  0.41477973  0.72502635  0.32076735    -0.35300
C2763       C  0.43132076  0.72460547  0.31276058     0.17000
C2764       C  0.44507138  0.71475840  0.31919873     0.22800
C2765       C  0.44295388  0.70393628  0.33394250    -0.33400
C2766       C  0.42626557  0.70403605  0.34171132     0.16900
O2767       O  0.39837593  0.71278896  0.34508006    -0.25400
C2768       C  0.40261775  0.70100822  0.35720686     0.06700
C2769       C  0.41977471  0.69500788  0.35571384    -0.30300
O2770       O  0.45955120  0.71676071  0.30993934    -0.22200
C2771       C  0.45490498  0.72776623  0.29721936    -0.02200
C2772       C  0.43746977  0.73300025  0.29825920    -0.16600
H2773       H  0.40416736  0.73299816  0.31574252     0.21400
H2774       H  0.45355159  0.69593915  0.33895308     0.19800
H2775       H  0.42651177  0.68559591  0.36391157     0.19700
H2776       H  0.43048024  0.74196271  0.28976768     0.15600
C2777       C  0.47477205  0.68758742  0.18379163     0.31000
C2778       C  0.47993611  0.67669652  0.16993265    -0.35300
C2779       C  0.46655297  0.66705625  0.16183754     0.17000
C2780       C  0.44928656  0.66791473  0.16700975     0.22800
C2781       C  0.44404136  0.67903128  0.18075839    -0.33400
C2782       C  0.45744370  0.68878173  0.18885721     0.16900
O2783       O  0.48521454  0.69751236  0.19333016    -0.25400
C2784       C  0.47448202  0.70530311  0.20465100     0.06700
C2785       C  0.45700918  0.70042441  0.20245519    -0.30300
O2786       O  0.43911592  0.65731094  0.15782163    -0.22200
C2787       C  0.45000416  0.64955554  0.14653205    -0.02200
C2788       C  0.46724661  0.65541520  0.14840557    -0.16600
H2789       H  0.49348237  0.67569525  0.16583331     0.21400
H2790       H  0.43051484  0.67990742  0.18493719     0.19800
H2791       H  0.44570969  0.70471042  0.20988200     0.19700
H2792       H  0.47886643  0.65200349  0.14116302     0.15600
C2793       C  0.58531915  0.66324111  0.28305521     0.31000
C2794       C  0.57660145  0.67010022  0.26840298    -0.35300
C2795       C  0.56430469  0.68330160  0.27179545     0.17000
C2796       C  0.56078842  0.68936236  0.28847554     0.22800
C2797       C  0.56955157  0.68248424  0.30316890    -0.33400
C2798       C  0.58189011  0.66924503  0.29975813     0.16900
O2799       O  0.59728073  0.65082330  0.28280831    -0.25400
C2800       C  0.60171146  0.64873766  0.29955173     0.06700
C2801       C  0.59250145  0.65988514  0.31072957    -0.30300
O2802       O  0.54875783  0.70180395  0.28855769    -0.22200
C2803       C  0.54454338  0.70371367  0.27170830    -0.02200
C2804       C  0.55382546  0.69254001  0.26070002    -0.16600
H2805       H  0.57923733  0.66545254  0.25525382     0.21400
H2806       H  0.56693374  0.68712541  0.31632074     0.19800
H2807       H  0.59346173  0.66095488  0.32484255     0.19700
H2808       H  0.55297882  0.69141713  0.24657661     0.15600
C2809       C  0.06595519  0.05890785  0.96177095     0.31000
C2810       C  0.07996735  0.06203932  0.95019944    -0.35300
C2811       C  0.08757847  0.07879642  0.95104197     0.17000
C2812       C  0.08200025  0.09143625  0.96271890     0.22800
C2813       C  0.06782446  0.08841742  0.97402706    -0.33400
C2814       C  0.05999832  0.07183202  0.97293793     0.16900
O2815       O  0.05714833  0.04410253  0.96353879    -0.25400
C2816       C  0.04517991  0.04774684  0.97573414     0.06700
C2817       C  0.04628093  0.06482820  0.98196055    -0.30300
O2818       O  0.09133059  0.10594024  0.96177635    -0.22200
C2819       C  0.10291192  0.10272560  0.94915152    -0.02200
C2820       C  0.10112471  0.08607569  0.94188250    -0.16600
H2821       H  0.08465359  0.05209249  0.94123312     0.21400
H2822       H  0.06325046  0.09831470  0.98310642     0.19800
H2823       H  0.03843050  0.07099838  0.99204089     0.19700
H2824       H  0.10891384  0.08011415  0.93163261     0.15600
C2825       C  0.96813416  0.08701628  0.08832620     0.31000
C2826       C  0.98018570  0.07335316  0.08539090    -0.35300
C2827       C  0.97854792  0.06433298  0.06936839     0.17000
C2828       C  0.96617941  0.06877205  0.05692282     0.22800
C2829       C  0.95401764  0.08226386  0.05995156    -0.33400
C2830       C  0.95541775  0.09100438  0.07609561     0.16900
O2831       O  0.96713483  0.09705141  0.10243492    -0.25400
C2832       C  0.95346105  0.10747743  0.09930113     0.06700
C2833       C  0.94563635  0.10420265  0.08312393    -0.30300
O2834       O  0.96726115  0.05899966  0.04266974    -0.22200
C2835       C  0.98025277  0.04785589  0.04610142    -0.02200
C2836       C  0.98772450  0.05050421  0.06257429    -0.16600
H2837       H  0.99007293  0.06992009  0.09498297     0.21400
H2838       H  0.94407945  0.08565915  0.05039852     0.19800
H2839       H  0.93442111  0.11069414  0.07733655     0.19700
H2840       H  0.99857377  0.04351959  0.06848246     0.15600
C2841       C  0.07206763  0.97456747  0.05551638     0.31000
C2842       C  0.08967500  0.97544889  0.06091901    -0.35300
C2843       C  0.09430840  0.96480147  0.07520381     0.17000
C2844       C  0.08251159  0.95381258  0.08339430     0.22800
C2845       C  0.06488552  0.95312417  0.07816331    -0.33400
C2846       C  0.06018374  0.96398594  0.06410794     0.16900
O2847       O  0.06483273  0.98336292  0.04246855    -0.25400
C2848       C  0.04804383  0.97855972  0.04293235     0.06700
C2849       C  0.04440198  0.96659174  0.05617000    -0.30300
O2850       O  0.08969801  0.94476386  0.09625010    -0.22200
C2851       C  0.10626043  0.95021606  0.09652125    -0.02200
C2852       C  0.10988695  0.96270217  0.08373010    -0.16600
H2853       H  0.09908054  0.98389188  0.05448844     0.21400
H2854       H  0.05546326  0.94475283  0.08466297     0.19800
H2855       H  0.03195611  0.96055775  0.05933489     0.19700
H2856       H  0.12222980  0.96914971  0.08101895     0.15600
C2857       C  0.93881660  0.94271086  0.04002062     0.31000
C2858       C  0.93241739  0.93318549  0.05446135    -0.35300
C2859       C  0.91847850  0.92157910  0.05103303     0.17000
C2860       C  0.91122417  0.91961070  0.03459046     0.22800
C2861       C  0.91761218  0.92909348  0.02017926    -0.33400
C2862       C  0.93161943  0.94055872  0.02355750     0.16900
O2863       O  0.95204882  0.95394648  0.04007488    -0.25400
C2864       C  0.95337896  0.95899800  0.02339161     0.06700
C2865       C  0.94098214  0.95105722  0.01257474    -0.30300
O2866       O  0.89845313  0.90792845  0.03427639    -0.22200
C2867       C  0.89762315  0.90197658  0.05065804    -0.02200
C2868       C  0.90968161  0.91022458  0.06170100    -0.16600
H2869       H  0.93806257  0.93454857  0.06741530     0.21400
H2870       H  0.91218176  0.92746442  0.00716190     0.19800
H2871       H  0.93927396  0.95263328  0.99857469     0.19700
H2872       H  0.91184822  0.90797444  0.07553947     0.15600
C2873       C  0.91581300  0.04796356  0.91776620     0.31000
C2874       C  0.92476072  0.05227508  0.93330843    -0.35300
C2875       C  0.93732973  0.04011654  0.93912377     0.17000
C2876       C  0.94075465  0.02467792  0.93035217     0.22800
C2877       C  0.93204798  0.02053696  0.91463008    -0.33400
C2878       C  0.91954866  0.03274408  0.90878226     0.16900
O2879       O  0.90325303  0.05720967  0.91020442    -0.25400
C2880       C  0.89873415  0.04775920  0.89620448     0.06700
C2881       C  0.90876685  0.03256084  0.89452125    -0.30300
O2882       O  0.95239271  0.01481634  0.93858639    -0.22200
C2883       C  0.95668176  0.02416188  0.95271819    -0.02200
C2884       C  0.94779182  0.04007530  0.95364964    -0.16600
H2885       H  0.92195414  0.06417534  0.94049801     0.21400
H2886       H  0.93462496  0.00849357  0.90759418     0.19800
H2887       H  0.90840401  0.02280670  0.88424116     0.19700
H2888       H  0.94854339  0.04991827  0.96384368     0.15600
C2889       C  0.04821727  0.91681288  0.91838572     0.31000
C2890       C  0.05243461  0.93243487  0.92717395    -0.35300
C2891       C  0.03964984  0.93899395  0.93868183     0.17000
C2892       C  0.02371124  0.93084770  0.94128849     0.22800
C2893       C  0.01961669  0.91504748  0.93271501    -0.33400
C2894       C  0.03246330  0.90844577  0.92126079     0.16900
O2895       O  0.05807995  0.90861106  0.90675532    -0.25400
C2896       C  0.04853050  0.89479099  0.90195435     0.06700
C2897       C  0.03258178  0.89388627  0.91089111    -0.30300
O2898       O  0.01345765  0.93965844  0.95214446    -0.22200
C2899       C  0.02304959  0.95353326  0.95670842    -0.02200
C2900       C  0.03948953  0.95372189  0.94878958    -0.16600
H2901       H  0.06476620  0.93912152  0.92504558     0.21400
H2902       H  0.00719177  0.90847561  0.93465760     0.19800
H2903       H  0.02253147  0.88392578  0.91012807     0.19700
H2904       H  0.04968315  0.96351586  0.95001524     0.15600
C2905       C  0.97097873  0.56374903  0.56751463     0.31000
C2906       C  0.97122774  0.56962660  0.58492587    -0.35300
C2907       C  0.96304049  0.58575409  0.58806675     0.17000
C2908       C  0.95486503  0.59530079  0.57504412     0.22800
C2909       C  0.95484306  0.58955581  0.55758199    -0.33400
C2910       C  0.96327919  0.57355639  0.55439447     0.16900
O2911       O  0.97793736  0.54908616  0.56160891    -0.25400
C2912       C  0.97485459  0.54963298  0.54446008     0.06700
C2913       C  0.96581945  0.56456324  0.53921254    -0.30300
O2914       O  0.94739666  0.60965625  0.58107600    -0.22200
C2915       C  0.95113235  0.60942767  0.59810325    -0.02200
C2916       C  0.96087905  0.59492332  0.60319260    -0.16600
H2917       H  0.97738465  0.56215302  0.59529711     0.21400
H2918       H  0.94865807  0.59701755  0.54721837     0.19800
H2919       H  0.96175076  0.56822920  0.52611938     0.19700
H2920       H  0.96522738  0.59138272  0.61622446     0.15600
C2921       C  0.05720961  0.47567570  0.56985519     0.31000
C2922       C  0.06319424  0.47601161  0.58730211    -0.35300
C2923       C  0.07804037  0.46572154  0.59099469     0.17000
C2924       C  0.08624575  0.45559053  0.57845421     0.22800
C2925       C  0.08042031  0.45545421  0.56100261    -0.33400
C2926       C  0.06578859  0.46594094  0.55725112     0.16900
O2927       O  0.04348977  0.48413365  0.56346341    -0.25400
C2928       C  0.04347494  0.47994265  0.54649704     0.06700
C2929       C  0.05711601  0.46875903  0.54190127    -0.30300
O2930       O  0.09974926  0.44680892  0.58477156    -0.22200
C2931       C  0.10043719  0.45155863  0.60154215    -0.02200
C2932       C  0.08722895  0.46330343  0.60616017    -0.16600
H2933       H  0.05675911  0.48377541  0.59728340     0.21400
H2934       H  0.08689657  0.44773966  0.55101046     0.19800
H2935       H  0.06001826  0.46327338  0.52913931     0.19700
H2936       H  0.08469707  0.46911222  0.61885087     0.15600
C2937       C  0.03568029  0.44240015  0.44014423     0.31000
C2938       C  0.05054388  0.43414110  0.43305825    -0.35300
C2939       C  0.04740177  0.42208898  0.41949440     0.17000
C2940       C  0.03082289  0.41857114  0.41319335     0.22800
C2941       C  0.01596785  0.42682603  0.42025726    -0.33400
C2942       C  0.01907107  0.43871315  0.43395746     0.16900
O2943       O  0.03552938  0.45387090  0.45310605    -0.25400
C2944       C  0.01859096  0.45751423  0.45533482     0.06700
C2945       C  0.00774842  0.44843104  0.44378820    -0.30300
O2946       O  0.03086480  0.40657646  0.40074337    -0.22200
C2947       C  0.04763429  0.40201875  0.39918473    -0.02200
C2948       C  0.05854895  0.41146788  0.41042471    -0.16600
H2949       H  0.06361688  0.43673494  0.43795817     0.21400
H2950       H  0.00286905  0.42395663  0.41558265     0.19800
H2951       H  0.99359641  0.44894358  0.44278296     0.19700
H2952       H  0.07260994  0.41037104  0.41201398     0.15600
C2953       C  0.06534827  0.56155129  0.47462310     0.31000
C2954       C  0.08285046  0.56727292  0.47488257    -0.35300
C2955       C  0.08640104  0.58279337  0.46568120     0.17000
C2956       C  0.07368476  0.59191348  0.45659134     0.22800
C2957       C  0.05615491  0.58633670  0.45653559    -0.33400
C2958       C  0.05255682  0.57098145  0.46595987     0.16900
O2959       O  0.05906215  0.54736650  0.48229082    -0.25400
C2960       C  0.04198434  0.54787779  0.47867289     0.06700
C2961       C  0.03720513  0.56231647  0.46863194    -0.30300
O2962       O  0.08001776  0.60578872  0.44846125    -0.22200
C2963       C  0.09696460  0.60572553  0.45263595    -0.02200
C2964       C  0.10166534  0.59173917  0.46333889    -0.16600
H2965       H  0.09299255  0.56013249  0.48177986     0.21400
H2966       H  0.04601987  0.59347104  0.44962042     0.19800
H2967       H  0.02429009  0.56581579  0.46388241     0.19700
H2968       H  0.11453147  0.58842055  0.46832381     0.15600
C2969       C  0.90600898  0.53612050  0.41990468     0.31000
C2970       C  0.91119862  0.52226170  0.43080361    -0.35300
C2971       C  0.92649173  0.52499694  0.44065154     0.17000
C2972       C  0.93584319  0.54046658  0.44012558     0.22800
C2973       C  0.93059089  0.55437926  0.42927150    -0.33400
C2974       C  0.91547168  0.55149574  0.41914662     0.16900
O2975       O  0.89294248  0.53579518  0.40859702    -0.25400
C2976       C  0.89418169  0.55098485  0.40015320     0.06700
C2977       C  0.90781222  0.56143154  0.40641566    -0.30300
O2978       O  0.94995309  0.54002379  0.45015597    -0.22200
C2979       C  0.94973963  0.52398882  0.45702822    -0.02200
C2980       C  0.93544782  0.51406328  0.45155958    -0.16600
H2981       H  0.90414035  0.50996139  0.43110930     0.21400
H2982       H  0.93807952  0.56639042  0.42836959     0.19800
H2983       H  0.91204819  0.57409226  0.40165717     0.19700
H2984       H  0.93216771  0.50073220  0.45510045     0.15600
C2985       C  0.91496965  0.42027391  0.55224211     0.31000
C2986       C  0.92965366  0.43039321  0.55695291    -0.35300
C2987       C  0.93645577  0.44138515  0.54384317     0.17000
C2988       C  0.92930540  0.44229113  0.52724266     0.22800
C2989       C  0.91436907  0.43253213  0.52269945    -0.33400
C2990       C  0.90759007  0.42157089  0.53579721     0.16900
O2991       O  0.90693163  0.40859791  0.56215624    -0.25400
C2992       C  0.89427525  0.40219529  0.55191214     0.06700
C2993       C  0.89383457  0.41019778  0.53549436    -0.30300
O2994       O  0.93823460  0.45271776  0.51675155    -0.22200
C2995       C  0.95120726  0.45875879  0.52676416    -0.02200
C2996       C  0.95068888  0.45225453  0.54381273    -0.16600
H2997       H  0.93557485  0.42949283  0.56982179     0.21400
H2998       H  0.90866175  0.43314327  0.50971481     0.19800
H2999       H  0.88464125  0.40826216  0.52487462     0.19700
H3000       H  0.95972702  0.45482038  0.55445839     0.15600
C3001       C  0.58627687  0.96585863  0.58483343     0.31000
C3002       C  0.57916639  0.98054660  0.57634366    -0.35300
C3003       C  0.56642775  0.97713162  0.56348783     0.17000
C3004       C  0.56108823  0.96039978  0.55918199     0.22800
C3005       C  0.56832529  0.94568508  0.56758649    -0.33400
C3006       C  0.58100667  0.94912073  0.58052812     0.16900
O3007       O  0.59786359  0.96609617  0.59768902    -0.25400
C3008       C  0.60014067  0.94929238  0.60175873     0.06700
C3009       C  0.58996057  0.93813711  0.59143305    -0.30300
O3010       O  0.54865303  0.96029656  0.54709142    -0.22200
C3011       C  0.54598148  0.97719610  0.54360441    -0.02200
C3012       C  0.55672490  0.98823928  0.55341022    -0.16600
H3013       H  0.58307960  0.99375112  0.57974798     0.21400
H3014       H  0.56414128  0.93249453  0.56446959     0.19800
H3015       H  0.58905297  0.92400606  0.59203219     0.19700
H3016       H  0.55715160  0.00241213  0.55328405     0.15600
C3017       C  0.58242052  0.08238123  0.45059343     0.31000
C3018       C  0.57217424  0.06802062  0.44508777    -0.35300
C3019       C  0.56175864  0.06003384  0.45807369     0.17000
C3020       C  0.56158397  0.06576180  0.47523644     0.22800
C3021       C  0.57162450  0.08013813  0.48063453    -0.33400
C3022       C  0.58189975  0.08809628  0.46769837     0.16900
O3023       O  0.59323308  0.09182563  0.44085370    -0.25400
C3024       C  0.59975732  0.10375212  0.45191831     0.06700
C3025       C  0.59284925  0.10204065  0.46876289    -0.30300
O3026       O  0.55120154  0.05637686  0.48531777    -0.22200
C3027       C  0.54443603  0.04446528  0.47454165    -0.02200
C3028       C  0.55047767  0.04611078  0.45736623    -0.16600
H3029       H  0.57233427  0.06338900  0.43168152     0.21400
H3030       H  0.57148684  0.08477292  0.49404383     0.19800
H3031       H  0.59497496  0.10987927  0.48031299     0.19700
H3032       H  0.54714549  0.03815300  0.44609949     0.15600
C3033       C  0.47872022  0.06529679  0.56273419     0.31000
C3034       C  0.48403380  0.07862204  0.57423840    -0.35300
C3035       C  0.47070074  0.08658414  0.58408212     0.17000
C3036       C  0.45332828  0.08187082  0.58273875     0.22800
C3037       C  0.44795933  0.06859197  0.57112911    -0.33400
C3038       C  0.46131039  0.06057646  0.56126617     0.16900
O3039       O  0.48905091  0.05598161  0.55244977    -0.25400
C3040       C  0.47813792  0.04514202  0.54420352     0.06700
C3041       C  0.46069728  0.04744036  0.54914868    -0.30300
O3042       O  0.44314909  0.09109145  0.59329284    -0.22200
C3043       C  0.45413667  0.10188982  0.60160083    -0.02200
C3044       C  0.47148997  0.09959248  0.59621372    -0.16600
H3045       H  0.49763697  0.08246344  0.57549699     0.21400
H3046       H  0.43435696  0.06473950  0.56991482     0.19800
H3047       H  0.44927115  0.04038618  0.54455023     0.19700
H3048       H  0.48323165  0.10634735  0.60017975     0.15600
C3049       C  0.44122570  0.02697435  0.42941755     0.31000
C3050       C  0.43513961  0.02539783  0.41210003    -0.35300
C3051       C  0.42052007  0.03565835  0.40765027     0.17000
C3052       C  0.41268945  0.04706876  0.41929148     0.22800
C3053       C  0.41871427  0.04857310  0.43666408    -0.33400
C3054       C  0.43306023  0.03794972  0.44125496     0.16900
O3055       O  0.45440146  0.01823470  0.43646454    -0.25400
C3056       C  0.45450631  0.02339135  0.45313963     0.06700
C3057       C  0.44149308  0.03563528  0.45689156    -0.30300
O3058       O  0.39927721  0.05550382  0.41227057    -0.22200
C3059       C  0.39827044  0.04915023  0.39602464    -0.02200
C3060       C  0.41118773  0.03677316  0.39243326    -0.16600
H3061       H  0.44120642  0.01654916  0.40281567     0.21400
H3062       H  0.41246325  0.05720453  0.44602969     0.19800
H3063       H  0.43870580  0.04191507  0.46930792     0.19700
H3064       H  0.41348159  0.02976786  0.38030853     0.15600
C3065       C  0.41022386  0.92181600  0.54245423     0.31000
C3066       C  0.41468204  0.93964746  0.54157238    -0.35300
C3067       C  0.43048390  0.94362219  0.53300824     0.17000
C3068       C  0.44131786  0.93090664  0.52606272     0.22800
C3069       C  0.43674512  0.91310580  0.52673896    -0.33400
C3070       C  0.42080396  0.90916099  0.53501989     0.16900
O3071       O  0.39606476  0.91513364  0.54982830    -0.25400
C3072       C  0.39747679  0.89802011  0.54681015     0.06700
C3073       C  0.41255639  0.89355336  0.53760676    -0.30300
O3074       O  0.45559281  0.93753019  0.51887495    -0.22200
C3075       C  0.45378034  0.95474413  0.52100377    -0.02200
C3076       C  0.43837170  0.95929463  0.52966797    -0.16600
H3077       H  0.40636785  0.94972646  0.54710095     0.21400
H3078       H  0.44500039  0.90303370  0.52110997     0.19800
H3079       H  0.41686969  0.88065669  0.53358378     0.19700
H3080       H  0.43374917  0.97225503  0.53310908     0.15600
C3081       C  0.54530649  0.90864524  0.42198726     0.31000
C3082       C  0.54514368  0.91424235  0.43953010    -0.35300
C3083       C  0.53542527  0.92945084  0.44311482     0.17000
C3084       C  0.52668994  0.93873776  0.43028271     0.22800
C3085       C  0.52662832  0.93298384  0.41276053    -0.33400
C3086       C  0.53612092  0.91759130  0.40922697     0.16900
O3087       O  0.55374067  0.89489620  0.41570158    -0.25400
C3088       C  0.54968905  0.89482513  0.39872200     0.06700
C3089       C  0.53871859  0.90862403  0.39396888    -0.30300
O3090       O  0.51877138  0.95282677  0.43654377    -0.22200
C3091       C  0.52225878  0.95239669  0.45366344    -0.02200
C3092       C  0.53251126  0.93810139  0.45847624    -0.16600
H3093       H  0.55212716  0.90722331  0.44969359     0.21400
H3094       H  0.51966769  0.94001494  0.40258899     0.19800
H3095       H  0.53369871  0.91179145  0.38108216     0.19700
H3096       H  0.53727719  0.93470626  0.47140556     0.15600
C3097       C  0.56949543  0.56051348  0.97312129     0.31000
C3098       C  0.58709602  0.56595205  0.97359776    -0.35300
C3099       C  0.59123211  0.58086311  0.96364192     0.17000
C3100       C  0.57897609  0.58970223  0.95368136     0.22800
C3101       C  0.56133009  0.58443262  0.95343891    -0.33400
C3102       C  0.55713801  0.56967610  0.96359313     0.16900
O3103       O  0.56274094  0.54680947  0.98127021    -0.25400
C3104       C  0.54577423  0.54735398  0.97711125     0.06700
C3105       C  0.54154544  0.56136936  0.96624053    -0.30300
O3106       O  0.58576753  0.60320803  0.94524461    -0.22200
C3107       C  0.60254516  0.60315730  0.95006300    -0.02200
C3108       C  0.60666837  0.58957689  0.96151351    -0.16600
H3109       H  0.59688441  0.55905722  0.98121976     0.21400
H3110       H  0.55152718  0.59138897  0.94589437     0.19800
H3111       H  0.52885727  0.56474935  0.96084159     0.19700
H3112       H  0.61922573  0.58662794  0.96744704     0.15600
C3113       C  0.46179175  0.59248652  0.07880218     0.31000
C3114       C  0.47223759  0.58998236  0.06384987    -0.35300
C3115       C  0.47295211  0.57282425  0.05725457     0.17000
C3116       C  0.46429980  0.55901575  0.06508626     0.22800
C3117       C  0.45364665  0.56157628  0.07987779    -0.33400
C3118       C  0.45262607  0.57879649  0.08624213     0.16900
O3119       O  0.45947509  0.60736153  0.08729315    -0.25400
C3120       C  0.44845219  0.60322539  0.10015781     0.06700
C3121       C  0.44363397  0.58566067  0.10008718    -0.30300
O3122       O  0.46718783  0.54398435  0.05704698    -0.22200
C3123       C  0.47757142  0.54823970  0.04369668    -0.02200
C3124       C  0.48152988  0.56602855  0.04310839    -0.16600
H3125       H  0.47931877  0.60066874  0.05779180     0.21400
H3126       H  0.44663608  0.55087824  0.08599479     0.19800
H3127       H  0.43516911  0.57887869  0.10921992     0.19700
H3128       H  0.48973690  0.57286767  0.03378279     0.15600
C3129       C  0.55734492  0.47125390  0.06825738     0.31000
C3130       C  0.56193176  0.46939503  0.08599959    -0.35300
C3131       C  0.57803304  0.46111588  0.08938529     0.17000
C3132       C  0.58876196  0.45481893  0.07623961     0.22800
C3133       C  0.58426763  0.45684414  0.05851550    -0.33400
C3134       C  0.56830868  0.46535068  0.05513140     0.16900
O3135       O  0.54300028  0.47875048  0.06205892    -0.25400
C3136       C  0.54491474  0.47779624  0.04473284     0.06700
C3137       C  0.56044338  0.46964047  0.03970355    -0.30300
O3138       O  0.60321194  0.44751457  0.08236715    -0.22200
C3139       C  0.60181406  0.44935628  0.09964650    -0.02200
C3140       C  0.58647888  0.45777372  0.10477181    -0.16600
H3141       H  0.55361452  0.47422110  0.09643175     0.21400
H3142       H  0.59271189  0.45225699  0.04807723     0.19800
H3143       H  0.56520634  0.46719809  0.02656228     0.19700
H3144       H  0.58225572  0.46101540  0.11792252     0.15600
C3145       C  0.41289638  0.41604553  0.03381899     0.31000
C3146       C  0.42046213  0.42412170  0.01911788    -0.35300
C3147       C  0.43283659  0.43731568  0.02258292     0.17000
C3148       C  0.43745120  0.44230566  0.03935674     0.22800
C3149       C  0.42980664  0.43427005  0.05406650    -0.33400
C3150       C  0.41748888  0.42100459  0.05059255     0.16900
O3151       O  0.40122054  0.40326545  0.03361323    -0.25400
C3152       C  0.39823861  0.39991279  0.05048947     0.06700
C3153       C  0.40807157  0.41057881  0.06162430    -0.30300
O3154       O  0.44969481  0.45458870  0.03952098    -0.22200
C3155       C  0.45299239  0.45748739  0.02260944    -0.02200
C3156       C  0.44280677  0.44714598  0.01151618    -0.16600
H3157       H  0.41707822  0.42024924  0.00588401     0.21400
H3158       H  0.43337726  0.43794396  0.06730568     0.19800
H3159       H  0.40825324  0.41068823  0.07580656     0.19700
H3160       H  0.44298299  0.44670457  0.99733298     0.15600
C3161       C  0.41286391  0.53324367  0.91314766     0.31000
C3162       C  0.42138391  0.51858978  0.92036341    -0.35300
C3163       C  0.43446158  0.52212315  0.93288311     0.17000
C3164       C  0.43888012  0.53891873  0.93793235     0.22800
C3165       C  0.43042361  0.55354825  0.93065434    -0.33400
C3166       C  0.41734083  0.55000886  0.91818113     0.16900
O3167       O  0.40011580  0.53301299  0.90139820    -0.25400
C3168       C  0.39635387  0.54986716  0.89880693     0.06700
C3169       C  0.40671809  0.56099629  0.90896011    -0.30300
O3170       O  0.45122465  0.53921104  0.95008698    -0.22200
C3171       C  0.45480237  0.52237429  0.95290695    -0.02200
C3172       C  0.44478509  0.51115255  0.94252233    -0.16600
H3173       H  0.41795731  0.50535326  0.91658342     0.21400
H3174       H  0.43371426  0.56678307  0.93455922     0.19800
H3175       H  0.40647929  0.57515498  0.90953901     0.19700
H3176       H  0.44493598  0.49697588  0.94229154     0.15600
C3177       C  0.52388112  0.43431559  0.93791162     0.31000
C3178       C  0.51935865  0.41946322  0.92804003    -0.35300
C3179       C  0.53236102  0.41297488  0.91676538     0.17000
C3180       C  0.54868373  0.42053892  0.91523276     0.22800
C3181       C  0.55330474  0.43529871  0.92527094    -0.33400
C3182       C  0.54031162  0.44177702  0.93662501     0.16900
O3183       O  0.51358533  0.44274785  0.94896423    -0.25400
C3184       C  0.52356526  0.45573495  0.95499083     0.06700
C3185       C  0.54037016  0.45572703  0.94783054    -0.30300
O3186       O  0.55870976  0.41234504  0.90372882    -0.22200
C3187       C  0.54868881  0.39931857  0.89774130    -0.02200
C3188       C  0.53217498  0.39905999  0.90562103    -0.16600
H3189       H  0.50654438  0.41345099  0.92899024     0.21400
H3190       H  0.56609351  0.44134898  0.92424689     0.19800
H3191       H  0.55094884  0.46485673  0.95029200     0.19700
H3192       H  0.52151246  0.38994282  0.90388894     0.15600
loop_ 
_geom_bond_atom_site_label_1 
_geom_bond_atom_site_label_2 
_geom_bond_distance 
_geom_bond_site_symmetry_2 
_ccdc_geom_bond_type 
Zn1           O5   1.970       .  S
Zn1           O6   2.039       .  S
Zn1          O10   2.032       .  S
Zn1          O17   2.015   1_556  S
Zn2           O5   1.971       .  S
Zn2           O7   2.037       .  S
Zn2           O9   2.030       .  S
Zn2          O13   2.036   1_556  S
Zn3           O5   1.966       .  S
Zn3           O8   2.031       .  S
Zn3          O11   2.029       .  S
Zn3          O14   2.027       .  S
Zn4           O5   1.978   1_554  S
Zn4          O12   2.046       .  S
Zn4          O15   2.026       .  S
Zn4          O16   2.044       .  S
O6           C18   1.274       .  A
O7           C19   1.276       .  A
O8           C20   1.275       .  A
O9           C18   1.274       .  A
O10          C20   1.275       .  A
O11          C19   1.275       .  A
O12          C21   1.275       .  A
O13          C22   1.276       .  A
O14          C21   1.274   1_556  A
O15          C22   1.274       .  A
O16          C23   1.276       .  A
O17          C23   1.274       .  A
C18        C3104   1.476       .  S
C19        C3171   1.477       .  S
C20        C3184   1.476       .  S
C21        C3155   1.480       .  S
C22        C3123   1.472       .  S
C23        C3136   1.474       .  S
Zn24         O28   1.972       .  S
Zn24         O29   2.032       .  S
Zn24         O33   2.035       .  S
Zn24         O40   2.038       .  S
Zn25         O28   1.978   1_545  S
Zn25         O30   2.030       .  S
Zn25         O32   2.037   1_545  S
Zn25         O36   2.041       .  S
Zn26         O28   1.974   1_545  S
Zn26         O31   2.030   1_545  S
Zn26         O34   2.040       .  S
Zn26         O37   2.023       .  S
Zn27         O28   1.966   1_545  S
Zn27         O35   2.034       .  S
Zn27         O38   2.017       .  S
Zn27         O39   2.033   1_545  S
O29          C41   1.275       .  A
O30          C42   1.274       .  A
O31          C43   1.276       .  A
O32          C41   1.274       .  A
O33          C43   1.276       .  A
O34          C42   1.276       .  A
O35          C44   1.274       .  A
O36          C45   1.276       .  A
O37          C44   1.273       .  A
O38          C45   1.274       .  A
O39          C46   1.275       .  A
O40          C46   1.275       .  A
C41        C3091   1.477       .  S
C42        C3056   1.475       .  S
C43        C3075   1.474       .  S
C44        C3040   1.475       .  S
C45        C3027   1.474       .  S
C46        C3011   1.479       .  S
Zn47         O51   1.962       .  S
Zn47         O52   2.008       .  S
Zn47         O56   2.014       .  S
Zn47         O63   2.010   1_655  S
Zn48         O51   1.975       .  S
Zn48         O53   2.043       .  S
Zn48         O55   2.024       .  S
Zn48         O59   2.036   1_655  S
Zn49         O51   1.965       .  S
Zn49         O54   2.033       .  S
Zn49         O57   2.023       .  S
Zn49         O60   2.036       .  S
Zn50         O51   1.968   1_455  S
Zn50         O58   2.027       .  S
Zn50         O61   2.027       .  S
Zn50         O62   2.042       .  S
O52          C64   1.272       .  A
O53          C65   1.277       .  A
O54          C66   1.274       .  A
O55          C64   1.274       .  A
O56          C66   1.271       .  A
O57          C65   1.274       .  A
O58          C67   1.275       .  A
O59          C68   1.274       .  A
O60          C67   1.277   1_655  A
O61          C68   1.274       .  A
O62          C69   1.275       .  A
O63          C69   1.273       .  A
C64        C2912   1.466       .  S
C65        C2995   1.475       .  S
C66        C2979   1.473       .  S
C67        C2944   1.475       .  S
C68        C2928   1.475       .  S
C69        C2960   1.472       .  S
Zn70         O74   1.970   1_665  S
Zn70         O75   2.030   1_556  S
Zn70         O79   2.040   1_655  S
Zn70         O86   2.042   1_565  S
Zn71         O74   1.976   1_664  S
Zn71         O76   2.029   1_655  S
Zn71         O78   2.051       .  S
Zn71         O82   2.057   1_565  S
Zn72         O74   1.972   1_565  S
Zn72         O77   2.029       .  S
Zn72         O80   2.035   1_556  S
Zn72         O83   2.025   1_565  S
Zn73         O74   1.968   1_655  S
Zn73         O81   2.041   1_655  S
Zn73         O84   2.031   1_556  S
Zn73         O85   2.037       .  S
O75          C87   1.276       .  A
O76          C88   1.275       .  A
O77          C89   1.275       .  A
O78          C87   1.277       .  A
O79          C89   1.275       .  A
O80          C88   1.275       .  A
O81          C90   1.276       .  A
O82          C91   1.277       .  A
O83          C90   1.273       .  A
O84          C91   1.274       .  A
O85          C92   1.276       .  A
O86          C92   1.276       .  A
C87        C2864   1.481       .  S
C88        C2848   1.473       .  S
C89        C2899   1.478       .  S
C90        C2816   1.474       .  S
C91        C2835   1.478       .  S
C92        C2883   1.479       .  S
Zn93         O97   1.964       .  S
Zn93         O98   2.014       .  S
Zn93        O102   2.027       .  S
Zn93        O109   2.019       .  S
Zn94         O97   1.975       .  S
Zn94         O99   2.032       .  S
Zn94        O101   2.042       .  S
Zn94        O105   2.039       .  S
Zn95         O97   1.969       .  S
Zn95        O100   2.020       .  S
Zn95        O103   2.026       .  S
Zn95        O106   2.024       .  S
Zn96         O97   1.970       .  S
Zn96        O104   2.038       .  S
Zn96        O107   2.033       .  S
Zn96        O108   2.038       .  S
O98         C110   1.273       .  A
O99         C111   1.275       .  A
O100        C112   1.272       .  A
O101        C110   1.277       .  A
O102        C112   1.274       .  A
O103        C111   1.274       .  A
O104        C113   1.276       .  A
O105        C114   1.275       .  A
O106        C113   1.274       .  A
O107        C114   1.275       .  A
O108        C115   1.275       .  A
O109        C115   1.273       .  A
C110       C2784   1.473       .  S
C111       C2771   1.472       .  S
C112       C2803   1.473       .  S
C113       C2736   1.473       .  S
C114       C2723   1.478       .  S
C115       C2752   1.475       .  S
Zn116       O120   1.962       .  S
Zn116       O121   2.040       .  S
Zn116       O125   2.015       .  S
Zn116       O132   2.017       .  S
Zn117       O120   1.964       .  S
Zn117       O122   2.022       .  S
Zn117       O124   2.016       .  S
Zn117       O128   2.019       .  S
Zn118       O120   1.972       .  S
Zn118       O123   2.037       .  S
Zn118       O126   2.026       .  S
Zn118       O129   2.028       .  S
Zn119       O120   1.972       .  S
Zn119       O127   2.030       .  S
Zn119       O130   2.035       .  S
Zn119       O131   2.034       .  S
O121        C133   1.276       .  A
O122        C134   1.274       .  A
O123        C135   1.275       .  A
O124        C133   1.272       .  A
O125        C135   1.274       .  A
O126        C134   1.274       .  A
O127        C136   1.274       .  A
O128        C137   1.274       .  A
O129        C136   1.273       .  A
O130        C137   1.275       .  A
O131        C138   1.275       .  A
O132        C138   1.273       .  A
C133       C2675   1.475       .  S
C134       C2624   1.470       .  S
C135       C2659   1.473       .  S
C136       C2640   1.474       .  S
C137       C2707   1.472       .  S
C138       C2688   1.472       .  S
Zn139       O143   1.962       .  S
Zn139       O144   2.020       .  S
Zn139       O148   2.024       .  S
Zn139       O155   2.017       .  S
Zn140       O143   1.975       .  S
Zn140       O145   2.020       .  S
Zn140       O147   2.052       .  S
Zn140       O151   2.029       .  S
Zn141       O143   1.974       .  S
Zn141       O146   2.035       .  S
Zn141       O149   2.033       .  S
Zn141       O152   2.034       .  S
Zn142       O143   1.976       .  S
Zn142       O150   2.046       .  S
Zn142       O153   2.036       .  S
Zn142       O154   2.038       .  S
O144        C156   1.274       .  A
O145        C157   1.274       .  A
O146        C158   1.274       .  A
O147        C156   1.276       .  A
O148        C158   1.273       .  A
O149        C157   1.275       .  A
O150        C159   1.277       .  A
O151        C160   1.274       .  A
O152        C159   1.275       .  A
O153        C160   1.274       .  A
O154        C161   1.275       .  A
O155        C161   1.274       .  A
C156       C2544   1.479       .  S
C157       C2608   1.470       .  S
C158       C2592   1.477       .  S
C159       C2576   1.479       .  S
C160       C2563   1.475       .  S
C161       C2528   1.475       .  S
Zn162       O166   1.952       .  S
Zn162       O167   1.998       .  S
Zn162       O171   2.000       .  S
Zn162       O178   1.996       .  S
Zn163       O166   1.959       .  S
Zn163       O168   2.018       .  S
Zn163       O170   2.015       .  S
Zn163       O174   2.014       .  S
Zn164       O166   1.945       .  S
Zn164       O169   2.005       .  S
Zn164       O172   1.985       .  S
Zn164       O175   1.996       .  S
Zn165       O166   1.957       .  S
Zn165       O173   2.026       .  S
Zn165       O176   2.022       .  S
Zn165       O177   2.015       .  S
O167        C179   1.271       .  A
O168        C180   1.272       .  A
O169        C181   1.271       .  A
O170        C179   1.273       .  A
O171        C181   1.269       .  A
O172        C180   1.270       .  A
O173        C182   1.274       .  A
O174        C183   1.273       .  A
O175        C182   1.271       .  A
O176        C183   1.273       .  A
O177        C184   1.273       .  A
O178        C184   1.271       .  A
C179       C2448   1.463       .  S
C180       C2480   1.460       .  S
C181       C2512   1.463       .  S
C182       C2464   1.466       .  S
C183       C2432   1.469       .  S
C184       C2499   1.462       .  S
N185        C189   1.352       .  A
N185        C186   1.355       .  A
N185       C2467   1.429       .  S
C186       C2531   1.487       .  S
C186        C187   1.387       .  A
C187        C188   1.384       .  A
C187        H190   1.082       .  S
C188        C189   1.381       .  A
C188        H191   1.082       .  S
C189       C2419   1.481       .  S
N192        C196   1.357       .  A
N192        C193   1.356       .  A
N192       C2435   1.430       .  S
C193       C3168   1.489       .  S
C193        C194   1.385       .  A
C194        C195   1.381       .  A
C194        H197   1.082       .  S
C195        C196   1.385       .  A
C195        H198   1.082       .  S
C196       C2547   1.488       .  S
N199        C203   1.352       .  A
N199        C200   1.357       .  A
N199       C2451   1.427       .  S
C200       C3187   1.490       .  S
C200        C201   1.385       .  A
C201        C202   1.384       .  A
C201        H204   1.082       .  S
C202        C203   1.381       .  A
C202        H205   1.082       .  S
C203       C2643   1.478       .  S
N206        C210   1.351       .  A
N206        C207   1.355       .  A
N206       C2483   1.427       .  S
C207       C2595   1.488       .  S
C207        C208   1.387       .  A
C208        C209   1.385       .  A
C208        H211   1.082       .  S
C209        C210   1.380       .  A
C209        H212   1.082       .  S
C210       C2704   1.480       .  S
N213        C217   1.353       .  A
N213        C214   1.351       .  A
N213       C2515   1.428       .  S
C214       C2400   1.473       .  S
C214        C215   1.381       .  A
C215        C216   1.381       .  A
C215        H218   1.082       .  S
C216        C217   1.382       .  A
C216        H219   1.082       .  S
C217       C2627   1.477       .  S
N220        C224   1.351       .  A
N220        C221   1.355       .  A
N220       C2496   1.427       .  S
C221       C3152   1.489       .  S
C221        C222   1.387       .  A
C222        C223   1.384       .  A
C222        H225   1.082       .  S
C223        C224   1.380       .  A
C223        H226   1.082       .  S
C224       C2384   1.477       .  S
Zn227       O231   1.971       .  S
Zn227       O232   2.027       .  S
Zn227       O236   2.034   1_554  S
Zn227       O243   2.035       .  S
Zn228       O231   1.966       .  S
Zn228       O233   2.033       .  S
Zn228       O235   2.021       .  S
Zn228       O239   2.030       .  S
Zn229       O231   1.967   1_556  S
Zn229       O234   2.045       .  S
Zn229       O237   2.031       .  S
Zn229       O240   2.008       .  S
Zn230       O231   1.974       .  S
Zn230       O238   2.035   1_554  S
Zn230       O241   2.041       .  S
Zn230       O242   2.026       .  S
O232        C244   1.274       .  A
O233        C245   1.275   1_554  A
O234        C246   1.275       .  A
O235        C244   1.274       .  A
O236        C246   1.275       .  A
O237        C245   1.275       .  A
O238        C247   1.275       .  A
O239        C248   1.274       .  A
O240        C247   1.273       .  A
O241        C248   1.275       .  A
O242        C249   1.275       .  A
O243        C249   1.275       .  A
C244       C2352   1.472       .  S
C245       C2339   1.476       .  S
C246       C2416   1.478       .  S
C247       C2403   1.470       .  S
C248       C2371   1.479       .  S
C249       C2387   1.474       .  S
Zn250       O254   1.971       .  S
Zn250       O255   2.031       .  S
Zn250       O259   2.018       .  S
Zn250       O266   2.032       .  S
Zn251       O254   1.966       .  S
Zn251       O256   2.023       .  S
Zn251       O258   2.023       .  S
Zn251       O262   2.029       .  S
Zn252       O254   1.967       .  S
Zn252       O257   2.019       .  S
Zn252       O260   2.030       .  S
Zn252       O263   2.023       .  S
Zn253       O254   1.963       .  S
Zn253       O261   2.033       .  S
Zn253       O264   2.017       .  S
Zn253       O265   2.020       .  S
O255        C267   1.274       .  A
O256        C268   1.275       .  A
O257        C269   1.273       .  A
O258        C267   1.273       .  A
O259        C269   1.273       .  A
O260        C268   1.274       .  A
O261        C270   1.275       .  A
O262        C271   1.274       .  A
O263        C270   1.273       .  A
O264        C271   1.273       .  A
O265        C272   1.274       .  A
O266        C272   1.275       .  A
C267       C2288   1.473       .  S
C268       C2256   1.472       .  S
C269       C2243   1.468       .  S
C270       C2275   1.475       .  S
C271       C2323   1.472       .  S
C272       C2307   1.472       .  S
Zn273       O277   1.971       .  S
Zn273       O278   2.025       .  S
Zn273       O282   2.047       .  S
Zn273       O289   2.023       .  S
Zn274       O277   1.972       .  S
Zn274       O279   2.030       .  S
Zn274       O281   2.026       .  S
Zn274       O285   2.029       .  S
Zn275       O277   1.957       .  S
Zn275       O280   2.005       .  S
Zn275       O283   2.015       .  S
Zn275       O286   2.028       .  S
Zn276       O277   1.964       .  S
Zn276       O284   2.019       .  S
Zn276       O287   2.014       .  S
Zn276       O288   2.022       .  S
O278        C290   1.274       .  A
O279        C291   1.275       .  A
O280        C292   1.272       .  A
O281        C290   1.273       .  A
O282        C292   1.277       .  A
O283        C291   1.273       .  A
O284        C293   1.272       .  A
O285        C294   1.274       .  A
O286        C293   1.274       .  A
O287        C294   1.274       .  A
O288        C295   1.274       .  A
O289        C295   1.273       .  A
C290       C2224   1.472       .  S
C291       C2144   1.471       .  S
C292       C2195   1.473       .  S
C293       C2163   1.474       .  S
C294       C2179   1.468       .  S
C295       C2211   1.469       .  S
Zn296       O300   1.949       .  S
Zn296       O301   2.003       .  S
Zn296       O305   2.008       .  S
Zn296       O312   2.001       .  S
Zn297       O300   1.950       .  S
Zn297       O302   1.997       .  S
Zn297       O304   1.999       .  S
Zn297       O308   1.998       .  S
Zn298       O300   1.950       .  S
Zn298       O303   2.003       .  S
Zn298       O306   1.999       .  S
Zn298       O309   2.007       .  S
Zn299       O300   1.953       .  S
Zn299       O307   2.006       .  S
Zn299       O310   2.010       .  S
Zn299       O311   2.007       .  S
O301        C313   1.272       .  A
O302        C314   1.270       .  A
O303        C315   1.270       .  A
O304        C313   1.271       .  A
O305        C315   1.272       .  A
O306        C314   1.271       .  A
O307        C316   1.272       .  A
O308        C317   1.270       .  A
O309        C316   1.273       .  A
O310        C317   1.272       .  A
O311        C318   1.272       .  A
O312        C318   1.272       .  A
C313       C2048   1.461       .  S
C314       C2128   1.457       .  S
C315       C2064   1.463       .  S
C316       C2115   1.462       .  S
C317       C2080   1.462       .  S
C318       C2096   1.462       .  S
N319        C323   1.351       .  A
N319        C320   1.356       .  A
N319       C2131   1.426       .  S
C320       C2035   1.489       .  S
C320        C321   1.386       .  A
C321        C322   1.386       .  A
C321        H324   1.082       .  S
C322        C323   1.381       .  A
C322        H325   1.082       .  S
C323       C3107   1.479       .  S
N326        C330   1.355       .  A
N326        C327   1.349       .  A
N326       C2051   1.426       .  S
C327       C3139   1.474       .  S
C327        C328   1.381       .  A
C328        C329   1.385       .  A
C328        H331   1.082       .  S
C329        C330   1.385       .  A
C329        H332   1.082       .  S
C330       C2304   1.488       .  S
N333        C337   1.354       .  A
N333        C334   1.354       .  A
N333       C2083   1.426       .  S
C334       C2016   1.486       .  S
C334        C335   1.385       .  A
C335        C336   1.382       .  A
C335        H338   1.082       .  S
C336        C337   1.385       .  A
C336        H339   1.082       .  S
C337       C2272   1.486       .  S
N340        C344   1.357       .  A
N340        C341   1.351       .  A
N340       C2067   1.427       .  S
C341       C3120   1.477       .  S
C341        C342   1.381       .  A
C342        C343   1.384       .  A
C342        H345   1.082       .  S
C343        C344   1.385       .  A
C343        H346   1.082       .  S
C344       C2787   1.491       .  S
N347        C351   1.353       .  A
N347        C348   1.356       .  A
N347       C2112   1.426       .  S
C348       C2000   1.488       .  S
C348        C349   1.383       .  A
C349        C350   1.383       .  A
C349        H352   1.082       .  S
C350        C351   1.385       .  A
C350        H353   1.082       .  S
C351       C2755   1.487       .  S
N354        C358   1.357       .  A
N354        C355   1.353       .  A
N354       C2099   1.426       .  S
C355       C2800   1.485       .  S
C355        C356   1.384       .  A
C356        C357   1.384       .  A
C356        H359   1.082       .  S
C357        C358   1.385       .  A
C357        H360   1.082       .  S
C358       C2320   1.492       .  S
Zn361       O365   1.972   1_556  S
Zn361       O366   2.029       .  S
Zn361       O370   2.038       .  S
Zn361       O377   2.041       .  S
Zn362       O365   1.976       .  S
Zn362       O367   2.036       .  S
Zn362       O369   2.041   1_554  S
Zn362       O373   2.030       .  S
Zn363       O365   1.968       .  S
Zn363       O368   2.021   1_554  S
Zn363       O371   2.017       .  S
Zn363       O374   2.026       .  S
Zn364       O365   1.973       .  S
Zn364       O372   2.040       .  S
Zn364       O375   2.048       .  S
Zn364       O376   2.040   1_554  S
O366        C378   1.275       .  A
O367        C379   1.275       .  A
O368        C380   1.273       .  A
O369        C378   1.276       .  A
O370        C380   1.275       .  A
O371        C379   1.272       .  A
O372        C381   1.276       .  A
O373        C382   1.274       .  A
O374        C381   1.275       .  A
O375        C382   1.277       .  A
O376        C383   1.275       .  A
O377        C383   1.276       .  A
C378       C1987   1.477       .  S
C379       C2003   1.473       .  S
C380       C2032   1.475       .  S
C381       C2019   1.477       .  S
C382       C1952   1.479       .  S
C383       C1971   1.479       .  S
Zn384       O388   1.961       .  S
Zn384       O389   2.012       .  S
Zn384       O393   2.007       .  S
Zn384       O400   2.015       .  S
Zn385       O388   1.951       .  S
Zn385       O390   2.015       .  S
Zn385       O392   2.016       .  S
Zn385       O396   2.021       .  S
Zn386       O388   1.957       .  S
Zn386       O391   2.007       .  S
Zn386       O394   2.014       .  S
Zn386       O397   1.998       .  S
Zn387       O388   1.952       .  S
Zn387       O395   2.005       .  S
Zn387       O398   2.011       .  S
Zn387       O399   1.998       .  S
O389        C401   1.272       .  A
O390        C402   1.274       .  A
O391        C403   1.271       .  A
O392        C401   1.274       .  A
O393        C403   1.272       .  A
O394        C402   1.273       .  A
O395        C404   1.271       .  A
O396        C405   1.273       .  A
O397        C404   1.270       .  A
O398        C405   1.272       .  A
O399        C406   1.272       .  A
O400        C406   1.272       .  A
C401       C1923   1.468       .  S
C402       C1856   1.466       .  S
C403       C1904   1.461       .  S
C404       C1875   1.461       .  S
C405       C1891   1.469       .  S
C406       C1939   1.463       .  S
N407        C411   1.352       .  A
N407        C408   1.351       .  A
N407       C1888   1.432       .  S
C408       C1840   1.472       .  S
C408        C409   1.384       .  A
C409        C410   1.379       .  A
C409        H412   1.082       .  S
C410        C411   1.381       .  A
C410        H413   1.082       .  S
C411       C2915   1.469       .  S
N414        C418   1.353       .  A
N414        C415   1.353       .  A
N414       C1920   1.430       .  S
C415       C2176   1.475       .  S
C415        C416   1.382       .  A
C416        C417   1.380       .  A
C416        H419   1.082       .  S
C417        C418   1.383       .  A
C417        H420   1.082       .  S
C418       C1827   1.476       .  S
N421        C425   1.353       .  A
N421        C422   1.354       .  A
N421       C1859   1.431       .  S
C422       C2208   1.476       .  S
C422        C423   1.382       .  A
C423        C424   1.381       .  A
C423        H426   1.082       .  S
C424        C425   1.382       .  A
C424        H427   1.082       .  S
C425       C2963   1.477       .  S
N428        C432   1.354       .  A
N428        C429   1.356       .  A
N428       C1936   1.429       .  S
C429       C2560   1.481       .  S
C429        C430   1.384       .  A
C430        C431   1.380       .  A
C430        H433   1.082       .  S
C431        C432   1.383       .  A
C431        H434   1.082       .  S
C432       C1811   1.484       .  S
N435        C439   1.353       .  A
N435        C436   1.352       .  A
N435       C1872   1.426       .  S
C436       C2579   1.480       .  S
C436        C437   1.383       .  A
C437        C438   1.383       .  A
C437        H440   1.082       .  S
C438        C439   1.383       .  A
C438        H441   1.082       .  S
C439       C2931   1.481       .  S
N442        C446   1.349       .  A
N442        C443   1.350       .  A
N442       C1907   1.430       .  S
C443       C2611   1.472       .  S
C443        C444   1.383       .  A
C444        C445   1.386       .  A
C444        H447   1.082       .  S
C445        C446   1.383       .  A
C445        H448   1.082       .  S
C446       C2227   1.474       .  S
Zn449       O453   1.966       .  S
Zn449       O454   2.016       .  S
Zn449       O458   2.029   1_655  S
Zn449       O465   2.016       .  S
Zn450       O453   1.970       .  S
Zn450       O455   2.028   1_655  S
Zn450       O457   2.027       .  S
Zn450       O461   2.035       .  S
Zn451       O453   1.972   1_455  S
Zn451       O456   2.021       .  S
Zn451       O459   2.034       .  S
Zn451       O462   2.049       .  S
Zn452       O453   1.964       .  S
Zn452       O460   2.021   1_655  S
Zn452       O463   2.022       .  S
Zn452       O464   2.038       .  S
O454        C466   1.273       .  A
O455        C467   1.273       .  A
O456        C468   1.274       .  A
O457        C466   1.275       .  A
O458        C468   1.273       .  A
O459        C467   1.274       .  A
O460        C469   1.276       .  A
O461        C470   1.275       .  A
O462        C469   1.277       .  A
O463        C470   1.274       .  A
O464        C471   1.273       .  A
O465        C471   1.272       .  A
C466       C1843   1.466       .  S
C467       C1808   1.474       .  S
C468       C1824   1.469       .  S
C469       C1760   1.478       .  S
C470       C1792   1.476       .  S
C471       C1779   1.474       .  S
Zn472       O476   1.944       .  S
Zn472       O477   2.014       .  S
Zn472       O481   1.999       .  S
Zn472       O488   1.998       .  S
Zn473       O476   1.937       .  S
Zn473       O478   1.996       .  S
Zn473       O480   1.997       .  S
Zn473       O484   1.986       .  S
Zn474       O476   1.940       .  S
Zn474       O479   1.997       .  S
Zn474       O482   2.004       .  S
Zn474       O485   1.999       .  S
Zn475       O476   1.947       .  S
Zn475       O483   2.012       .  S
Zn475       O486   2.012       .  S
Zn475       O487   2.007       .  S
O477        C489   1.271       .  A
O478        C490   1.270       .  A
O479        C491   1.270       .  A
O480        C489   1.271       .  A
O481        C491   1.271       .  A
O482        C490   1.271       .  A
O483        C492   1.272       .  A
O484        C493   1.270       .  A
O485        C492   1.270       .  A
O486        C493   1.272       .  A
O487        C494   1.272       .  A
O488        C494   1.271       .  A
C489       C1712   1.461       .  S
C490       C1664   1.458       .  S
C491       C1744   1.455       .  S
C492       C1731   1.459       .  S
C493       C1683   1.456       .  S
C494       C1699   1.456       .  S
N495        C499   1.363       .  A
N495        C496   1.357       .  A
N495       C1715   1.436       .  S
C496       C1955   1.484       .  S
C496        C497   1.380       .  A
C497        C498   1.381       .  A
C497        H500   1.082       .  S
C498        C499   1.386       .  A
C498        H501   1.082       .  S
C499       C2867   1.493       .  S
N502        C506   1.357       .  A
N502        C503   1.359       .  A
N502       C1728   1.432       .  S
C503       C1648   1.485       .  S
C503        C504   1.382       .  A
C504        C505   1.381       .  A
C504        H507   1.082       .  S
C505        C506   1.382       .  A
C505        H508   1.082       .  S
C506       C1776   1.485       .  S
N509        C513   1.360       .  A
N509        C510   1.355       .  A
N509       C1680   1.434       .  S
C510       C1968   1.483       .  S
C510        C511   1.381       .  A
C511        C512   1.382       .  A
C511        H514   1.082       .  S
C512        C513   1.386       .  A
C512        H515   1.082       .  S
C513       C1795   1.489       .  S
N516        C520   1.359       .  A
N516        C517   1.361       .  A
N516       C1667   1.438       .  S
C517       C1632   1.494       .  S
C517        C518   1.387       .  A
C518        C519   1.380       .  A
C518        H521   1.082       .  S
C519        C520   1.379       .  A
C519        H522   1.082       .  S
C520       C1984   1.480       .  S
N523        C527   1.359       .  A
N523        C524   1.358       .  A
N523       C1696   1.431       .  S
C524       C2896   1.490       .  S
C524        C525   1.383       .  A
C525        C526   1.383       .  A
C525        H528   1.082       .  S
C526        C527   1.384       .  A
C526        H529   1.082       .  S
C527       C1763   1.490       .  S
N530        C534   1.359       .  A
N530        C531   1.361       .  A
N530       C1747   1.432       .  S
C531       C1616   1.490       .  S
C531        C532   1.382       .  A
C532        C533   1.382       .  A
C532        H535   1.082       .  S
C533        C534   1.382       .  A
C533        H536   1.082       .  S
C534       C2880   1.490       .  S
Zn537       O541   1.952       .  S
Zn537       O542   2.007       .  S
Zn537       O546   2.019       .  S
Zn537       O553   2.009       .  S
Zn538       O541   1.956       .  S
Zn538       O543   2.003       .  S
Zn538       O545   2.016       .  S
Zn538       O549   2.016       .  S
Zn539       O541   1.952       .  S
Zn539       O544   1.997       .  S
Zn539       O547   2.004       .  S
Zn539       O550   1.994       .  S
Zn540       O541   1.956       .  S
Zn540       O548   2.009       .  S
Zn540       O551   2.008       .  S
Zn540       O552   2.011       .  S
O542        C554   1.273       .  A
O543        C555   1.272       .  A
O544        C556   1.270       .  A
O545        C554   1.272       .  A
O546        C556   1.273       .  A
O547        C555   1.271       .  A
O548        C557   1.272       .  A
O549        C558   1.273       .  A
O550        C557   1.269       .  A
O551        C558   1.273       .  A
O552        C559   1.272       .  A
O553        C559   1.272       .  A
C554       C1552   1.465       .  S
C555       C1536   1.462       .  S
C556       C1520   1.464       .  S
C557       C1568   1.460       .  S
C558       C1587   1.465       .  S
C559       C1603   1.463       .  S
N560        C564   1.351       .  A
N560        C561   1.356       .  A
N560       C1555   1.430       .  S
C561       C3008   1.488       .  S
C561        C562   1.388       .  A
C562        C563   1.384       .  A
C562        H565   1.082       .  S
C563        C564   1.381       .  A
C563        H566   1.082       .  S
C564       C1504   1.478       .  S
N567        C571   1.358       .  A
N567        C568   1.358       .  A
N567       C1539   1.424       .  S
C568       C3024   1.495       .  S
C568        C569   1.384       .  A
C569        C570   1.386       .  A
C569        H572   1.082       .  S
C570        C571   1.384       .  A
C570        H573   1.082       .  S
C571       C1491   1.496       .  S
N574        C578   1.355       .  A
N574        C575   1.352       .  A
N574       C1600   1.432       .  S
C575       C1472   1.477       .  S
C575        C576   1.381       .  A
C576        C577   1.383       .  A
C576        H579   1.082       .  S
C577        C578   1.387       .  A
C577        H580   1.082       .  S
C578       C2656   1.484       .  S
N581        C585   1.354       .  A
N581        C582   1.357       .  A
N581       C1523   1.426       .  S
C582       C3043   1.492       .  S
C582        C583   1.385       .  A
C583        C584   1.384       .  A
C583        H586   1.082       .  S
C584        C585   1.384       .  A
C584        H587   1.082       .  S
C585       C2672   1.487       .  S
N588        C592   1.353       .  A
N588        C589   1.357       .  A
N588       C1584   1.428       .  S
C589       C1440   1.491       .  S
C589        C590   1.388       .  A
C590        C591   1.385       .  A
C590        H593   1.082       .  S
C591        C592   1.380       .  A
C591        H594   1.082       .  S
C592       C1459   1.481       .  S
N595        C599   1.356       .  A
N595        C596   1.355       .  A
N595       C1571   1.425       .  S
C596       C1427   1.491       .  S
C596        C597   1.384       .  A
C597        C598   1.385       .  A
C597        H600   1.082       .  S
C598        C599   1.383       .  A
C598        H601   1.082       .  S
C599       C2691   1.488       .  S
Zn602       O606   1.971   1_565  S
Zn602       O607   2.041   1_565  S
Zn602       O611   2.024       .  S
Zn602       O618   2.034       .  S
Zn603       O606   1.970       .  S
Zn603       O608   2.032       .  S
Zn603       O610   2.027       .  S
Zn603       O614   2.034       .  S
Zn604       O606   1.971   1_565  S
Zn604       O609   2.041       .  S
Zn604       O612   2.032   1_565  S
Zn604       O615   2.036       .  S
Zn605       O606   1.966   1_565  S
Zn605       O613   2.043       .  S
Zn605       O616   2.024   1_565  S
Zn605       O617   2.023       .  S
O607        C619   1.274       .  A
O608        C620   1.276       .  A
O609        C621   1.275       .  A
O610        C619   1.273       .  A
O611        C621   1.275       .  A
O612        C620   1.275       .  A
O613        C622   1.275       .  A
O614        C623   1.275       .  A
O615        C622   1.274       .  A
O616        C623   1.274       .  A
O617        C624   1.274       .  A
O618        C624   1.276       .  A
C619       C1456   1.477       .  S
C620       C1475   1.472       .  S
C621       C1507   1.475       .  S
C622       C1635   1.481       .  S
C623       C1619   1.474       .  S
C624       C1651   1.472       .  S
Zn625       O629   1.967       .  S
Zn625       O630   2.025       .  S
Zn625       O634   2.031       .  S
Zn625       O641   2.035       .  S
Zn626       O629   1.980       .  S
Zn626       O631   2.036       .  S
Zn626       O633   2.055       .  S
Zn626       O637   2.037       .  S
Zn627       O629   1.971       .  S
Zn627       O632   2.040       .  S
Zn627       O635   2.028       .  S
Zn627       O638   2.019       .  S
Zn628       O629   1.976       .  S
Zn628       O636   2.041       .  S
Zn628       O639   2.030       .  S
Zn628       O640   2.022       .  S
O630        C642   1.275       .  A
O631        C643   1.276       .  A
O632        C644   1.275       .  A
O633        C642   1.277       .  A
O634        C644   1.274       .  A
O635        C643   1.274       .  A
O636        C645   1.275       .  A
O637        C646   1.276       .  A
O638        C645   1.274       .  A
O639        C646   1.274       .  A
O640        C647   1.274       .  A
O641        C647   1.275       .  A
C642       C1443   1.482       .  S
C643       C1376   1.476       .  S
C644       C1488   1.478       .  S
C645       C1411   1.475       .  S
C646       C1392   1.476       .  S
C647       C1424   1.475       .  S
Zn648       O652   1.960       .  S
Zn648       O653   2.016       .  S
Zn648       O657   2.011       .  S
Zn648       O664   2.008       .  S
Zn649       O652   1.952       .  S
Zn649       O654   2.008       .  S
Zn649       O656   1.994       .  S
Zn649       O660   2.008       .  S
Zn650       O652   1.954       .  S
Zn650       O655   2.009       .  S
Zn650       O658   2.012       .  S
Zn650       O661   2.020       .  S
Zn651       O652   1.948       .  S
Zn651       O659   1.996       .  S
Zn651       O662   1.998       .  S
Zn651       O663   2.002       .  S
O653        C665   1.272       .  A
O654        C666   1.271       .  A
O655        C667   1.273       .  A
O656        C665   1.271       .  A
O657        C667   1.273       .  A
O658        C666   1.273       .  A
O659        C668   1.271       .  A
O660        C669   1.271       .  A
O661        C668   1.273       .  A
O662        C669   1.271       .  A
O663        C670   1.271       .  A
O664        C670   1.271       .  A
C665       C1283   1.463       .  S
C666       C1296   1.466       .  S
C667       C1344   1.463       .  S
C668       C1312   1.465       .  S
C669       C1328   1.462       .  S
C670       C1360   1.462       .  S
N671        C675   1.357       .  A
N671        C672   1.354       .  A
N671       C1315   1.426       .  S
C672       C2160   1.486       .  S
C672        C673   1.384       .  A
C673        C674   1.383       .  A
C673        H676   1.082       .  S
C674        C675   1.384       .  A
C674        H677   1.082       .  S
C675       C1267   1.491       .  S
N678        C682   1.353       .  A
N678        C679   1.353       .  A
N678       C1280   1.426       .  S
C679       C3088   1.482       .  S
C679        C680   1.382       .  A
C680        C681   1.383       .  A
C680        H683   1.082       .  S
C681        C682   1.384       .  A
C681        H684   1.082       .  S
C682       C2739   1.481       .  S
N685        C689   1.351       .  A
N685        C686   1.358       .  A
N685       C1299   1.427       .  S
C686       C2147   1.489       .  S
C686        C687   1.385       .  A
C687        C688   1.382       .  A
C687        H690   1.082       .  S
C688        C689   1.380       .  A
C688        H691   1.082       .  S
C689       C3072   1.475       .  S
N692        C696   1.350       .  A
N692        C693   1.357       .  A
N692       C1331   1.427       .  S
C693       C2192   1.488       .  S
C693        C694   1.386       .  A
C694        C695   1.384       .  A
C694        H697   1.082       .  S
C695        C696   1.381       .  A
C695        H698   1.082       .  S
C696       C2768   1.476       .  S
N699        C703   1.357       .  A
N699        C700   1.350       .  A
N699       C1363   1.426       .  S
C700       C2720   1.480       .  S
C700        C701   1.381       .  A
C701        C702   1.387       .  A
C701        H704   1.082       .  S
C702        C703   1.386       .  A
C702        H705   1.082       .  S
C703       C1248   1.492       .  S
N706        C710   1.357       .  A
N706        C707   1.356       .  A
N706       C1347   1.430       .  S
C707       C3059   1.483       .  S
C707        C708   1.380       .  A
C708        C709   1.383       .  A
C708        H711   1.082       .  S
C709        C710   1.387       .  A
C709        H712   1.082       .  S
C710       C1232   1.491       .  S
Zn713       O717   1.965       .  S
Zn713       O718   2.033       .  S
Zn713       O722   2.041       .  S
Zn713       O729   2.028       .  S
Zn714       O717   1.968       .  S
Zn714       O719   2.020       .  S
Zn714       O721   2.030       .  S
Zn714       O725   2.022   1_565  S
Zn715       O717   1.968       .  S
Zn715       O720   2.021       .  S
Zn715       O723   2.032       .  S
Zn715       O726   2.027   1_565  S
Zn716       O717   1.980   1_545  S
Zn716       O724   2.042       .  S
Zn716       O727   2.034       .  S
Zn716       O728   2.056       .  S
O718        C730   1.275       .  A
O719        C731   1.274       .  A
O720        C732   1.273       .  A
O721        C730   1.274       .  A
O722        C732   1.275       .  A
O723        C731   1.274       .  A
O724        C733   1.276       .  A
O725        C734   1.273       .  A
O726        C733   1.275       .  A
O727        C734   1.275       .  A
O728        C735   1.278       .  A
O729        C735   1.276   1_565  A
C730       C1251   1.476       .  S
C731       C1187   1.471       .  S
C732       C1264   1.476       .  S
C733       C1200   1.477       .  S
C734       C1219   1.471       .  S
C735       C1235   1.482       .  S
Zn736       O740   1.953       .  S
Zn736       O741   2.008       .  S
Zn736       O745   2.010       .  S
Zn736       O752   2.003       .  S
Zn737       O740   1.956       .  S
Zn737       O742   2.009       .  S
Zn737       O744   2.013       .  S
Zn737       O748   2.020       .  S
Zn738       O740   1.954       .  S
Zn738       O743   2.004       .  S
Zn738       O746   2.013       .  S
Zn738       O749   2.002       .  S
Zn739       O740   1.954       .  S
Zn739       O747   2.013       .  S
Zn739       O750   1.999       .  S
Zn739       O751   2.014       .  S
O741        C753   1.272       .  A
O742        C754   1.272       .  A
O743        C755   1.272       .  A
O744        C753   1.273       .  A
O745        C755   1.271       .  A
O746        C754   1.273       .  A
O747        C756   1.273       .  A
O748        C757   1.272       .  A
O749        C756   1.271       .  A
O750        C757   1.272       .  A
O751        C758   1.272       .  A
O752        C758   1.271       .  A
C753       C1152   1.465       .  S
C754       C1168   1.465       .  S
C755       C1091   1.463       .  S
C756       C1136   1.463       .  S
C757       C1107   1.464       .  S
C758       C1120   1.464       .  S
N759        C763   1.358       .  A
N759        C760   1.352       .  A
N759       C1155   1.428       .  S
C760       C2819   1.479       .  S
C760        C761   1.382       .  A
C761        C762   1.383       .  A
C761        H764   1.082       .  S
C762        C763   1.385       .  A
C762        H765   1.082       .  S
C763       C2336   1.490       .  S
N766        C770   1.353       .  A
N766        C767   1.353       .  A
N766       C1104   1.430       .  S
C767       C1184   1.477       .  S
C767        C768   1.384       .  A
C768        C769   1.381       .  A
C768        H771   1.082       .  S
C769        C770   1.382       .  A
C769        H772   1.082       .  S
C770       C2851   1.477       .  S
N773        C777   1.354       .  A
N773        C774   1.357       .  A
N773       C1123   1.428       .  S
C774       C1075   1.490       .  S
C774        C775   1.385       .  A
C775        C776   1.382       .  A
C775        H778   1.082       .  S
C776        C777   1.384       .  A
C776        H779   1.082       .  S
C777       C2832   1.486       .  S
N780        C784   1.351       .  A
N780        C781   1.355       .  A
N780       C1139   1.427       .  S
C781       C1056   1.488       .  S
C781        C782   1.388       .  A
C782        C783   1.384       .  A
C782        H785   1.082       .  S
C783        C784   1.380       .  A
C783        H786   1.082       .  S
C784       C1203   1.479       .  S
N787        C791   1.356       .  A
N787        C788   1.356       .  A
N787       C1088   1.425       .  S
C788       C1040   1.490       .  S
C788        C789   1.383       .  A
C789        C790   1.384       .  A
C789        H792   1.082       .  S
C790        C791   1.383       .  A
C790        H793   1.082       .  S
C791       C2355   1.490       .  S
N794        C798   1.355       .  A
N794        C795   1.351       .  A
N794       C1171   1.428       .  S
C795       C1216   1.478       .  S
C795        C796   1.382       .  A
C796        C797   1.383       .  A
C796        H799   1.082       .  S
C797        C798   1.386       .  A
C797        H800   1.082       .  S
C798       C2368   1.487       .  S
Zn801       O805   1.949       .  S
Zn801       O806   2.018       .  S
Zn801       O810   1.999       .  S
Zn801       O817   1.999       .  S
Zn802       O805   1.958       .  S
Zn802       O807   2.044       .  S
Zn802       O809   2.009       .  S
Zn802       O813   2.017       .  S
Zn803       O805   1.948       .  S
Zn803       O808   2.024       .  S
Zn803       O811   2.001       .  S
Zn803       O814   1.999       .  S
Zn804       O805   1.961       .  S
Zn804       O812   2.015       .  S
Zn804       O815   1.996       .  S
Zn804       O816   2.011       .  S
O806        C818   1.273       .  A
O807        C819   1.276       .  A
O808        C820   1.273       .  A
O809        C818   1.272       .  A
O810        C820   1.271       .  A
O811        C819   1.272       .  A
O812        C821   1.272       .  A
O813        C822   1.273       .  A
O814        C821   1.271       .  A
O815        C822   1.270       .  A
O816        C823   1.271       .  A
O817        C823   1.271       .  A
C818       C1027   1.464       .  S
C819        C944   1.469       .  S
C820        C992   1.466       .  S
C821       C1011   1.462       .  S
C822        C963   1.460       .  S
C823        C979   1.460       .  S
N824        C828   1.356       .  A
N824        C825   1.357       .  A
N824        C995   1.443       .  S
C825       C2240   1.472       .  S
C825        C826   1.381       .  A
C826        C827   1.378       .  A
C826        H829   1.082       .  S
C827        C828   1.382       .  A
C827        H830   1.082       .  S
C828        C928   1.475       .  S
N831        C835   1.358       .  A
N831        C832   1.355       .  A
N831        C976   1.439       .  S
C832       C1379   1.478       .  S
C832        C833   1.383       .  A
C833        C834   1.381       .  A
C833        H836   1.082       .  S
C834        C835   1.381       .  A
C834        H837   1.082       .  S
C835        C912   1.479       .  S
N838        C842   1.362       .  A
N838        C839   1.355       .  A
N838       C1024   1.437       .  S
C839        C896   1.478       .  S
C839        C840   1.379       .  A
C840        C841   1.380       .  A
C840        H843   1.082       .  S
C841        C842   1.387       .  A
C841        H844   1.082       .  S
C842       C2947   1.488       .  S
N845        C849   1.360       .  A
N845        C846   1.356       .  A
N845        C960   1.436       .  S
C846       C1395   1.477       .  S
C846        C847   1.380       .  A
C847        C848   1.381       .  A
C847        H850   1.082       .  S
C848        C849   1.384       .  A
C848        H851   1.082       .  S
C849       C2992   1.487       .  S
N852        C856   1.360       .  A
N852        C853   1.355       .  A
N852        C947   1.440       .  S
C853       C2259   1.476       .  S
C853        C854   1.381       .  A
C854        C855   1.380       .  A
C854        H857   1.082       .  S
C855        C856   1.385       .  A
C855        H858   1.082       .  S
C856       C2976   1.485       .  S
N859        C863   1.358       .  A
N859        C860   1.361       .  A
N859       C1008   1.444       .  S
C860       C2291   1.478       .  S
C860        C861   1.382       .  A
C861        C862   1.378       .  A
C861        H864   1.082       .  S
C862        C863   1.382       .  A
C862        H865   1.082       .  S
C863       C1408   1.477       .  S
Zn866       O870   1.962       .  S
Zn866       O871   2.017       .  S
Zn866       O875   2.019       .  S
Zn866       O882   2.021       .  S
Zn867       O870   1.974   1_655  S
Zn867       O872   2.023       .  S
Zn867       O874   2.044       .  S
Zn867       O878   2.039       .  S
Zn868       O870   1.982       .  S
Zn868       O873   2.053       .  S
Zn868       O876   2.038   1_455  S
Zn868       O879   2.051       .  S
Zn869       O870   1.967       .  S
Zn869       O877   2.020       .  S
Zn869       O880   2.032   1_455  S
Zn869       O881   2.023       .  S
O871        C883   1.273   1_455  A
O872        C884   1.275       .  A
O873        C885   1.277       .  A
O874        C883   1.275       .  A
O875        C885   1.274       .  A
O876        C884   1.276       .  A
O877        C886   1.274       .  A
O878        C887   1.276       .  A
O879        C886   1.276       .  A
O880        C887   1.275       .  A
O881        C888   1.273       .  A
O882        C888   1.273       .  A
C883       C1072   1.478       .  S
C884        C915   1.474       .  S
C885       C1059   1.479       .  S
C886        C899   1.478       .  S
C887        C931   1.477       .  S
C888       C1043   1.471       .  S
C889        C894   1.381       .  A
C889        C890   1.403       .  A
C889        O895   1.320       .  A
C890        C891   1.403       .  A
C890        H901   1.083       .  S
C891        C900   1.361       .  A
C891        C892   1.380       .  A
C892        C893   1.407       .  A
C892        O898   1.324       .  A
C893        C894   1.406       .  A
C893        H902   1.082       .  S
C894        C897   1.365       .  A
O895        C896   1.330       .  A
C896        C897   1.392       .  A
C897        H903   1.082       .  S
O898        C899   1.333       .  A
C899        C900   1.392       .  A
C900        H904   1.083       .  S
C905        C910   1.381       .  A
C905        C906   1.405       .  A
C905        O911   1.321       .  A
C906        C907   1.404       .  A
C906        H917   1.083       .  S
C907        C916   1.363       .  A
C907        C908   1.380       .  A
C908        C909   1.404       .  A
C908        O914   1.321       .  A
C909        C910   1.404       .  A
C909        H918   1.083       .  S
C910        C913   1.363       .  A
O911        C912   1.331       .  A
C912        C913   1.392       .  A
C913        H919   1.082       .  S
O914        C915   1.331       .  A
C915        C916   1.392       .  A
C916        H920   1.083       .  S
C921        C926   1.381       .  A
C921        C922   1.404       .  A
C921        O927   1.320       .  A
C922        C923   1.404       .  A
C922        H933   1.082       .  S
C923        C932   1.364       .  A
C923        C924   1.380       .  A
C924        C925   1.405       .  A
C924        O930   1.321       .  A
C925        C926   1.404       .  A
C925        H934   1.083       .  S
C926        C929   1.363       .  A
O927        C928   1.331       .  A
C928        C929   1.390       .  A
C929        H935   1.083       .  S
O930        C931   1.332       .  A
C931        C932   1.393       .  A
C932        H936   1.082       .  S
C937        C942   1.381       .  A
C937        C938   1.402       .  A
C937        O943   1.320       .  A
C938        C939   1.402       .  A
C938        H949   1.083       .  S
C939        C948   1.358       .  A
C939        C940   1.381       .  A
C940        C941   1.402       .  A
C940        O946   1.319       .  A
C941        C942   1.403       .  A
C941        H950   1.083       .  S
C942        C945   1.360       .  A
O943        C944   1.330       .  A
C944        C945   1.392       .  A
C945        H951   1.083       .  S
O946        C947   1.330       .  A
C947        C948   1.392       .  A
C948        H952   1.082       .  S
C953        C958   1.381       .  A
C953        C954   1.402       .  A
C953        O959   1.318       .  A
C954        C955   1.402       .  A
C954        H965   1.082       .  S
C955        C964   1.361       .  A
C955        C956   1.381       .  A
C956        C957   1.399       .  A
C956        O962   1.315       .  A
C957        C958   1.398       .  A
C957        H966   1.082       .  S
C958        C961   1.355       .  A
O959        C960   1.330       .  A
C960        C961   1.390       .  A
C961        H967   1.082       .  S
O962        C963   1.328       .  A
C963        C964   1.390       .  A
C964        H968   1.082       .  S
C969        C974   1.380       .  A
C969        C970   1.404       .  A
C969        O975   1.318       .  A
C970        C971   1.404       .  A
C970        H981   1.083       .  S
C971        C980   1.363       .  A
C971        C972   1.381       .  A
C972        C973   1.397       .  A
C972        O978   1.313       .  A
C973        C974   1.396       .  A
C973        H982   1.083       .  S
C974        C977   1.353       .  A
O975        C976   1.331       .  A
C976        C977   1.390       .  A
C977        H983   1.082       .  S
O978        C979   1.327       .  A
C979        C980   1.392       .  A
C980        H984   1.083       .  S
C985        C990   1.381       .  A
C985        C986   1.401       .  A
C985        O991   1.318       .  A
C986        C987   1.401       .  A
C986        H997   1.082       .  S
C987        C996   1.357       .  A
C987        C988   1.380       .  A
C988        C989   1.402       .  A
C988        O994   1.318       .  A
C989        C990   1.402       .  A
C989        H998   1.082       .  S
C990        C993   1.359       .  A
O991        C992   1.330       .  A
C992        C993   1.391       .  A
C993        H999   1.083       .  S
O994        C995   1.330       .  A
C995        C996   1.395       .  A
C996       H1000   1.081       .  S
C1001      C1006   1.378       .  A
C1001      C1002   1.405       .  A
C1001      O1007   1.318       .  A
C1002      C1003   1.405       .  A
C1002      H1013   1.083       .  S
C1003      C1012   1.364       .  A
C1003      C1004   1.381       .  A
C1004      C1005   1.396       .  A
C1004      O1010   1.313       .  A
C1005      C1006   1.395       .  A
C1005      H1014   1.083       .  S
C1006      C1009   1.352       .  A
O1007      C1008   1.333       .  A
C1008      C1009   1.392       .  A
C1009      H1015   1.079       .  S
O1010      C1011   1.327       .  A
C1011      C1012   1.393       .  A
C1012      H1016   1.082       .  S
C1017      C1022   1.381       .  A
C1017      C1018   1.401       .  A
C1017      O1023   1.315   1_655  A
C1018      C1019   1.400       .  A
C1018      H1029   1.083       .  S
C1019      C1028   1.361       .  A
C1019      C1020   1.381       .  A
C1020      C1021   1.402       .  A
C1020      O1026   1.317       .  A
C1021      C1022   1.401       .  A
C1021      H1030   1.083       .  S
C1022      C1025   1.361   1_655  A
O1023      C1024   1.330       .  A
C1024      C1025   1.391       .  A
C1025      H1031   1.082       .  S
O1026      C1027   1.330       .  A
C1027      C1028   1.389       .  A
C1028      H1032   1.083       .  S
C1033      C1038   1.377       .  A
C1033      C1034   1.406       .  A
C1033      O1039   1.322       .  A
C1034      C1035   1.406       .  A
C1034      H1045   1.082       .  S
C1035      C1044   1.364       .  A
C1035      C1036   1.380       .  A
C1036      C1037   1.401       .  A
C1036      O1042   1.318       .  A
C1037      C1038   1.401       .  A
C1037      H1046   1.082       .  S
C1038      C1041   1.356       .  A
O1039      C1040   1.334       .  A
C1040      C1041   1.396       .  A
C1041      H1047   1.077       .  S
O1042      C1043   1.330       .  A
C1043      C1044   1.393       .  A
C1044      H1048   1.082       .  S
C1049      C1054   1.379       .  A
C1049      C1050   1.405       .  A
C1049      O1055   1.320       .  A
C1050      C1051   1.405       .  A
C1050      H1061   1.083       .  S
C1051      C1060   1.363       .  A
C1051      C1052   1.380       .  A
C1052      C1053   1.406       .  A
C1052      O1058   1.323       .  A
C1053      C1054   1.406       .  A
C1053      H1062   1.083       .  S
C1054      C1057   1.364       .  A
O1055      C1056   1.332       .  A
C1056      C1057   1.395       .  A
C1057      H1063   1.082       .  S
O1058      C1059   1.333       .  A
C1059      C1060   1.394       .  A
C1060      H1064   1.083       .  S
C1065      C1070   1.380       .  A
C1065      C1066   1.406       .  A
C1065      O1071   1.323       .  A
C1066      C1067   1.407       .  A
C1066      H1077   1.083       .  S
C1067      C1076   1.364       .  A
C1067      C1068   1.379       .  A
C1068      C1069   1.404       .  A
C1068      O1074   1.320       .  A
C1069      C1070   1.404       .  A
C1069      H1078   1.083       .  S
C1070      C1073   1.361       .  A
O1071      C1072   1.333       .  A
C1072      C1073   1.392       .  A
C1073      H1079   1.083   1_655  S
O1074      C1075   1.332       .  A
C1075      C1076   1.396       .  A
C1076      H1080   1.082       .  S
C1081      C1086   1.383       .  A
C1081      C1082   1.399       .  A
C1081      O1087   1.315       .  A
C1082      C1083   1.399       .  A
C1082      H1093   1.083       .  S
C1083      C1092   1.358       .  A
C1083      C1084   1.381       .  A
C1084      C1085   1.401       .  A
C1084      O1090   1.317       .  A
C1085      C1086   1.400       .  A
C1085      H1094   1.083       .  S
C1086      C1089   1.360       .  A
O1087      C1088   1.327       .  A
C1088      C1089   1.388       .  A
C1089      H1095   1.082       .  S
O1090      C1091   1.330       .  A
C1091      C1092   1.390       .  A
C1092      H1096   1.083       .  S
C1097      C1102   1.382       .  A
C1097      C1098   1.399   1_565  A
C1097      O1103   1.314       .  A
C1098      C1099   1.398       .  A
C1098      H1109   1.083       .  S
C1099      C1108   1.356       .  A
C1099      C1100   1.381       .  A
C1100      C1101   1.404       .  A
C1100      O1106   1.319       .  A
C1101      C1102   1.403   1_545  A
C1101      H1110   1.082       .  S
C1102      C1105   1.363       .  A
O1103      C1104   1.327       .  A
C1104      C1105   1.388       .  A
C1105      H1111   1.082       .  S
O1106      C1107   1.331       .  A
C1107      C1108   1.389       .  A
C1108      H1112   1.083       .  S
C1113      C1118   1.381       .  A
C1113      C1114   1.399       .  A
C1113      O1119   1.315       .  A
C1114      C1115   1.398       .  A
C1114      H1125   1.083       .  S
C1115      C1124   1.357   1_455  A
C1115      C1116   1.383       .  A
C1116      C1117   1.403       .  A
C1116      O1122   1.318   1_455  A
C1117      C1118   1.402       .  A
C1117      H1126   1.083       .  S
C1118      C1121   1.362       .  A
O1119      C1120   1.328       .  A
C1120      C1121   1.391       .  A
C1121      H1127   1.083       .  S
O1122      C1123   1.329       .  A
C1123      C1124   1.386       .  A
C1124      H1128   1.082       .  S
C1129      C1134   1.381       .  A
C1129      C1130   1.403       .  A
C1129      O1135   1.317       .  A
C1130      C1131   1.401       .  A
C1130      H1141   1.083       .  S
C1131      C1140   1.362       .  A
C1131      C1132   1.383       .  A
C1132      C1133   1.399       .  A
C1132      O1138   1.314       .  A
C1133      C1134   1.398       .  A
C1133      H1142   1.083       .  S
C1134      C1137   1.358       .  A
O1135      C1136   1.330       .  A
C1136      C1137   1.389       .  A
C1137      H1143   1.083       .  S
O1138      C1139   1.327       .  A
C1139      C1140   1.388       .  A
C1140      H1144   1.082       .  S
C1145      C1150   1.381       .  A
C1145      C1146   1.400       .  A
C1145      O1151   1.316       .  A
C1146      C1147   1.399       .  A
C1146      H1157   1.083       .  S
C1147      C1156   1.358   1_554  A
C1147      C1148   1.383   1_554  A
C1148      C1149   1.402   1_556  A
C1148      O1154   1.318       .  A
C1149      C1150   1.402       .  A
C1149      H1158   1.083       .  S
C1150      C1153   1.361       .  A
O1151      C1152   1.329       .  A
C1152      C1153   1.391       .  A
C1153      H1159   1.083       .  S
O1154      C1155   1.328       .  A
C1155      C1156   1.387       .  A
C1156      H1160   1.082       .  S
C1161      C1166   1.381       .  A
C1161      C1162   1.400       .  A
C1161      O1167   1.316       .  A
C1162      C1163   1.400       .  A
C1162      H1173   1.083       .  S
C1163      C1172   1.358       .  A
C1163      C1164   1.383       .  A
C1164      C1165   1.402       .  A
C1164      O1170   1.318       .  A
C1165      C1166   1.402       .  A
C1165      H1174   1.083       .  S
C1166      C1169   1.361       .  A
O1167      C1168   1.329       .  A
C1168      C1169   1.391       .  A
C1169      H1175   1.083       .  S
O1170      C1171   1.328       .  A
C1171      C1172   1.387       .  A
C1172      H1176   1.082       .  S
C1177      C1182   1.380       .  A
C1177      C1178   1.403       .  A
C1177      O1183   1.318       .  A
C1178      C1179   1.402       .  A
C1178      H1189   1.083       .  S
C1179      C1188   1.361       .  A
C1179      C1180   1.381       .  A
C1180      C1181   1.405       .  A
C1180      O1186   1.320       .  A
C1181      C1182   1.404       .  A
C1181      H1190   1.083       .  S
C1182      C1185   1.363       .  A
O1183      C1184   1.330       .  A
C1184      C1185   1.392       .  A
C1185      H1191   1.082       .  S
O1186      C1187   1.331       .  A
C1187      C1188   1.391       .  A
C1188      H1192   1.083       .  S
C1193      C1198   1.380       .  A
C1193      C1194   1.405       .  A
C1193      O1199   1.322       .  A
C1194      C1195   1.405       .  A
C1194      H1205   1.083       .  S
C1195      C1204   1.363       .  A
C1195      C1196   1.381       .  A
C1196      C1197   1.405       .  A
C1196      O1202   1.322       .  A
C1197      C1198   1.405       .  A
C1197      H1206   1.082       .  S
C1198      C1201   1.363       .  A
O1199      C1200   1.332       .  A
C1200      C1201   1.393       .  A
C1201      H1207   1.083       .  S
O1202      C1203   1.331       .  A
C1203      C1204   1.391       .  A
C1204      H1208   1.083       .  S
C1209      C1214   1.380       .  A
C1209      C1210   1.406       .  A
C1209      O1215   1.321       .  A
C1210      C1211   1.405       .  A
C1210      H1221   1.083       .  S
C1211      C1220   1.365       .  A
C1211      C1212   1.381       .  A
C1212      C1213   1.403       .  A
C1212      O1218   1.319       .  A
C1213      C1214   1.403       .  A
C1213      H1222   1.083       .  S
C1214      C1217   1.362       .  A
O1215      C1216   1.332       .  A
C1216      C1217   1.391       .  A
C1217      H1223   1.082       .  S
O1218      C1219   1.331       .  A
C1219      C1220   1.392       .  A
C1220      H1224   1.083       .  S
C1225      C1230   1.379       .  A
C1225      C1226   1.404       .  A
C1225      O1231   1.321       .  A
C1226      C1227   1.405       .  A
C1226      H1237   1.083       .  S
C1227      C1236   1.362       .  A
C1227      C1228   1.380       .  A
C1228      C1229   1.408       .  A
C1228      O1234   1.325       .  A
C1229      C1230   1.408       .  A
C1229      H1238   1.083       .  S
C1230      C1233   1.365       .  A
O1231      C1232   1.332       .  A
C1232      C1233   1.396       .  A
C1233      H1239   1.082       .  S
O1234      C1235   1.334       .  A
C1235      C1236   1.393       .  A
C1236      H1240   1.083   1_545  S
C1241      C1246   1.377       .  A
C1241      C1242   1.409       .  A
C1241      O1247   1.324       .  A
C1242      C1243   1.409       .  A
C1242      H1253   1.082       .  S
C1243      C1252   1.367       .  A
C1243      C1244   1.380       .  A
C1244      C1245   1.401       .  A
C1244      O1250   1.319       .  A
C1245      C1246   1.401       .  A
C1245      H1254   1.082       .  S
C1246      C1249   1.358       .  A
O1247      C1248   1.336       .  A
C1248      C1249   1.395       .  A
C1249      H1255   1.078       .  S
O1250      C1251   1.330       .  A
C1251      C1252   1.396       .  A
C1252      H1256   1.082       .  S
C1257      C1262   1.380       .  A
C1257      C1258   1.405       .  A
C1257      O1263   1.322       .  A
C1258      C1259   1.405       .  A
C1258      H1269   1.082       .  S
C1259      C1268   1.360       .  A
C1259      C1260   1.377       .  A
C1260      C1261   1.405       .  A
C1260      O1266   1.321       .  A
C1261      C1262   1.405       .  A
C1261      H1270   1.082       .  S
C1262      C1265   1.363       .  A
O1263      C1264   1.332       .  A
C1264      C1265   1.393       .  A
C1265      H1271   1.082       .  S
O1266      C1267   1.334       .  A
C1267      C1268   1.397       .  A
C1268      H1272   1.077       .  S
C1273      C1278   1.383       .  A
C1273      C1274   1.397       .  A
C1273      O1279   1.312       .  A
C1274      C1275   1.396       .  A
C1274      H1285   1.083       .  S
C1275      C1284   1.354       .  A
C1275      C1276   1.381       .  A
C1276      C1277   1.404       .  A
C1276      O1282   1.319       .  A
C1277      C1278   1.403       .  A
C1277      H1286   1.083       .  S
C1278      C1281   1.363       .  A
O1279      C1280   1.325       .  A
C1280      C1281   1.388       .  A
C1281      H1287   1.082       .  S
O1282      C1283   1.331       .  A
C1283      C1284   1.388       .  A
C1284      H1288   1.083       .  S
C1289      C1294   1.381       .  A
C1289      C1290   1.404       .  A
C1289      O1295   1.318       .  A
C1290      C1291   1.403       .  A
C1290      H1301   1.083       .  S
C1291      C1300   1.364       .  A
C1291      C1292   1.383       .  A
C1292      C1293   1.398       .  A
C1292      O1298   1.314       .  A
C1293      C1294   1.398       .  A
C1293      H1302   1.083       .  S
C1294      C1297   1.357       .  A
O1295      C1296   1.331       .  A
C1296      C1297   1.389       .  A
C1297      H1303   1.083       .  S
O1298      C1299   1.326       .  A
C1299      C1300   1.389       .  A
C1300      H1304   1.082       .  S
C1305      C1310   1.381       .  A
C1305      C1306   1.402       .  A
C1305      O1311   1.318       .  A
C1306      C1307   1.401       .  A
C1306      H1317   1.083       .  S
C1307      C1316   1.360       .  A
C1307      C1308   1.383       .  A
C1308      C1309   1.400       .  A
C1308      O1314   1.316       .  A
C1309      C1310   1.399       .  A
C1309      H1318   1.083       .  S
C1310      C1313   1.358       .  A
O1311      C1312   1.330       .  A
C1312      C1313   1.390       .  A
C1313      H1319   1.083       .  S
O1314      C1315   1.327       .  A
C1315      C1316   1.387       .  A
C1316      H1320   1.082       .  S
C1321      C1326   1.381       .  A
C1321      C1322   1.400       .  A
C1321      O1327   1.317       .  A
C1322      C1323   1.400       .  A
C1322      H1333   1.083       .  S
C1323      C1332   1.358       .  A
C1323      C1324   1.383       .  A
C1324      C1325   1.400       .  A
C1324      O1330   1.318       .  A
C1325      C1326   1.400       .  A
C1325      H1334   1.083       .  S
C1326      C1329   1.358       .  A
O1327      C1328   1.329       .  A
C1328      C1329   1.390       .  A
C1329      H1335   1.083       .  S
O1330      C1331   1.327       .  A
C1331      C1332   1.387       .  A
C1332      H1336   1.082       .  S
C1337      C1342   1.381       .  A
C1337      C1338   1.399       .  A
C1337      O1343   1.316       .  A
C1338      C1339   1.398       .  A
C1338      H1349   1.083       .  S
C1339      C1348   1.356   1_565  A
C1339      C1340   1.382   1_565  A
C1340      C1341   1.403   1_545  A
C1340      O1346   1.319       .  A
C1341      C1342   1.403       .  A
C1341      H1350   1.083       .  S
C1342      C1345   1.361       .  A
O1343      C1344   1.328       .  A
C1344      C1345   1.391       .  A
C1345      H1351   1.083       .  S
O1346      C1347   1.329       .  A
C1347      C1348   1.386       .  A
C1348      H1352   1.082       .  S
C1353      C1358   1.381       .  A
C1353      C1354   1.399       .  A
C1353      O1359   1.316       .  A
C1354      C1355   1.399       .  A
C1354      H1365   1.083       .  S
C1355      C1364   1.356       .  A
C1355      C1356   1.383       .  A
C1356      C1357   1.401       .  A
C1356      O1362   1.318       .  A
C1357      C1358   1.401       .  A
C1357      H1366   1.083       .  S
C1358      C1361   1.359       .  A
O1359      C1360   1.329       .  A
C1360      C1361   1.390       .  A
C1361      H1367   1.083       .  S
O1362      C1363   1.328       .  A
C1363      C1364   1.386       .  A
C1364      H1368   1.082       .  S
C1369      C1374   1.380       .  A
C1369      C1370   1.405       .  A
C1369      O1375   1.320       .  A
C1370      C1371   1.404       .  A
C1370      H1381   1.083       .  S
C1371      C1380   1.363       .  A
C1371      C1372   1.380       .  A
C1372      C1373   1.405       .  A
C1372      O1378   1.321       .  A
C1373      C1374   1.405       .  A
C1373      H1382   1.083       .  S
C1374      C1377   1.364       .  A
O1375      C1376   1.332       .  A
C1376      C1377   1.393       .  A
C1377      H1383   1.083       .  S
O1378      C1379   1.332       .  A
C1379      C1380   1.391       .  A
C1380      H1384   1.082       .  S
C1385      C1390   1.380       .  A
C1385      C1386   1.405       .  A
C1385      O1391   1.320       .  A
C1386      C1387   1.404       .  A
C1386      H1397   1.083       .  S
C1387      C1396   1.364       .  A
C1387      C1388   1.380       .  A
C1388      C1389   1.405       .  A
C1388      O1394   1.320       .  A
C1389      C1390   1.405       .  A
C1389      H1398   1.083       .  S
C1390      C1393   1.365       .  A
O1391      C1392   1.332       .  A
C1392      C1393   1.393       .  A
C1393      H1399   1.083       .  S
O1394      C1395   1.332       .  A
C1395      C1396   1.390       .  A
C1396      H1400   1.082       .  S
C1401      C1406   1.381       .  A
C1401      C1402   1.403       .  A
C1401      O1407   1.320       .  A
C1402      C1403   1.403       .  A
C1402      H1413   1.083       .  S
C1403      C1412   1.360       .  A
C1403      C1404   1.380       .  A
C1404      C1405   1.406       .  A
C1404      O1410   1.322       .  A
C1405      C1406   1.405       .  A
C1405      H1414   1.083       .  S
C1406      C1409   1.363       .  A
O1407      C1408   1.330       .  A
C1408      C1409   1.391       .  A
C1409      H1415   1.082       .  S
O1410      C1411   1.333       .  A
C1411      C1412   1.391       .  A
C1412      H1416   1.083       .  S
C1417      C1422   1.380       .  A
C1417      C1418   1.403       .  A
C1417      O1423   1.321       .  A
C1418      C1419   1.404       .  A
C1418      H1429   1.082       .  S
C1419      C1428   1.358       .  A
C1419      C1420   1.377       .  A
C1420      C1421   1.405       .  A
C1420      O1426   1.322       .  A
C1421      C1422   1.405       .  A
C1421      H1430   1.082       .  S
C1422      C1425   1.363       .  A
O1423      C1424   1.331       .  A
C1424      C1425   1.393       .  A
C1425      H1431   1.082       .  S
O1426      C1427   1.333       .  A
C1427      C1428   1.397       .  A
C1428      H1432   1.078       .  S
C1433      C1438   1.379       .  A
C1433      C1434   1.404       .  A
C1433      O1439   1.321       .  A
C1434      C1435   1.404       .  A
C1434      H1445   1.083       .  S
C1435      C1444   1.361       .  A
C1435      C1436   1.380       .  A
C1436      C1437   1.408       .  A
C1436      O1442   1.325       .  A
C1437      C1438   1.408       .  A
C1437      H1446   1.083       .  S
C1438      C1441   1.366       .  A
O1439      C1440   1.332       .  A
C1440      C1441   1.397       .  A
C1441      H1447   1.082       .  S
O1442      C1443   1.334       .  A
C1443      C1444   1.393       .  A
C1444      H1448   1.083       .  S
C1449      C1454   1.380       .  A
C1449      C1450   1.406       .  A
C1449      O1455   1.323       .  A
C1450      C1451   1.405       .  A
C1450      H1461   1.083       .  S
C1451      C1460   1.363       .  A
C1451      C1452   1.380       .  A
C1452      C1453   1.406       .  A
C1452      O1458   1.322       .  A
C1453      C1454   1.406       .  A
C1453      H1462   1.083       .  S
C1454      C1457   1.364       .  A
O1455      C1456   1.332       .  A
C1456      C1457   1.393       .  A
C1457      H1463   1.083       .  S
O1458      C1459   1.332       .  A
C1459      C1460   1.392       .  A
C1460      H1464   1.082       .  S
C1465      C1470   1.380       .  A
C1465      C1466   1.404       .  A
C1465      O1471   1.319       .  A
C1466      C1467   1.403       .  A
C1466      H1477   1.083       .  S
C1467      C1476   1.363       .  A
C1467      C1468   1.381       .  A
C1468      C1469   1.405       .  A
C1468      O1474   1.320       .  A
C1469      C1470   1.404       .  A
C1469      H1478   1.082       .  S
C1470      C1473   1.364       .  A
O1471      C1472   1.331       .  A
C1472      C1473   1.391       .  A
C1473      H1479   1.082       .  S
O1474      C1475   1.332       .  A
C1475      C1476   1.391       .  A
C1476      H1480   1.083       .  S
C1481      C1486   1.380       .  A
C1481      C1482   1.402       .  A
C1481      O1487   1.320       .  A
C1482      C1483   1.402       .  A
C1482      H1493   1.082       .  S
C1483      C1492   1.357       .  A
C1483      C1484   1.376       .  A
C1484      C1485   1.409       .  A
C1484      O1490   1.324       .  A
C1485      C1486   1.409       .  A
C1485      H1494   1.082       .  S
C1486      C1489   1.368       .  A
O1487      C1488   1.331       .  A
C1488      C1489   1.395       .  A
C1489      H1495   1.082       .  S
O1490      C1491   1.336       .  A
C1491      C1492   1.397       .  A
C1492      H1496   1.078       .  S
C1497      C1502   1.380       .  A
C1497      C1498   1.403       .  A
C1497      O1503   1.319       .  A
C1498      C1499   1.403       .  A
C1498      H1509   1.083       .  S
C1499      C1508   1.362       .  A
C1499      C1500   1.380       .  A
C1500      C1501   1.407       .  A
C1500      O1506   1.322       .  A
C1501      C1502   1.406       .  A
C1501      H1510   1.082       .  S
C1502      C1505   1.366       .  A
O1503      C1504   1.330       .  A
C1504      C1505   1.392       .  A
C1505      H1511   1.082       .  S
O1506      C1507   1.333       .  A
C1507      C1508   1.391       .  A
C1508      H1512   1.083       .  S
C1513      C1518   1.381       .  A
C1513      C1514   1.400       .  A
C1513      O1519   1.315       .  A
C1514      C1515   1.399       .  A
C1514      H1525   1.083       .  S
C1515      C1524   1.359       .  A
C1515      C1516   1.383       .  A
C1516      C1517   1.402       .  A
C1516      O1522   1.317       .  A
C1517      C1518   1.401       .  A
C1517      H1526   1.083       .  S
C1518      C1521   1.361       .  A
O1519      C1520   1.329       .  A
C1520      C1521   1.390       .  A
C1521      H1527   1.083       .  S
O1522      C1523   1.328       .  A
C1523      C1524   1.386       .  A
C1524      H1528   1.082       .  S
C1529      C1534   1.381       .  A
C1529      C1530   1.401       .  A
C1529      O1535   1.316       .  A
C1530      C1531   1.400       .  A
C1530      H1541   1.083       .  S
C1531      C1540   1.360       .  A
C1531      C1532   1.383       .  A
C1532      C1533   1.399       .  A
C1532      O1538   1.315       .  A
C1533      C1534   1.398       .  A
C1533      H1542   1.083       .  S
C1534      C1537   1.357       .  A
O1535      C1536   1.330       .  A
C1536      C1537   1.389       .  A
C1537      H1543   1.083       .  S
O1538      C1539   1.327       .  A
C1539      C1540   1.388       .  A
C1540      H1544   1.082       .  S
C1545      C1550   1.381       .  A
C1545      C1546   1.404       .  A
C1545      O1551   1.319       .  A
C1546      C1547   1.403   1_545  A
C1546      H1557   1.083       .  S
C1547      C1556   1.363       .  A
C1547      C1548   1.382       .  A
C1548      C1549   1.399   1_565  A
C1548      O1554   1.314       .  A
C1549      C1550   1.398       .  A
C1549      H1558   1.083       .  S
C1550      C1553   1.357       .  A
O1551      C1552   1.331       .  A
C1552      C1553   1.389       .  A
C1553      H1559   1.083       .  S
O1554      C1555   1.327       .  A
C1555      C1556   1.389       .  A
C1556      H1560   1.082       .  S
C1561      C1566   1.381       .  A
C1561      C1562   1.401       .  A
C1561      O1567   1.315       .  A
C1562      C1563   1.399       .  A
C1562      H1573   1.083       .  S
C1563      C1572   1.359       .  A
C1563      C1564   1.383       .  A
C1564      C1565   1.399       .  A
C1564      O1570   1.315       .  A
C1565      C1566   1.398       .  A
C1565      H1574   1.083       .  S
C1566      C1569   1.358       .  A
O1567      C1568   1.329       .  A
C1568      C1569   1.389       .  A
C1569      H1575   1.083       .  S
O1570      C1571   1.327       .  A
C1571      C1572   1.387       .  A
C1572      H1576   1.082       .  S
C1577      C1582   1.382       .  A
C1577      C1578   1.400       .  A
C1577      O1583   1.314       .  A
C1578      C1579   1.399       .  A
C1578      H1589   1.083       .  S
C1579      C1588   1.359       .  A
C1579      C1580   1.381       .  A
C1580      C1581   1.403       .  A
C1580      O1586   1.317       .  A
C1581      C1582   1.401       .  A
C1581      H1590   1.082       .  S
C1582      C1585   1.362       .  A
O1583      C1584   1.327       .  A
C1584      C1585   1.388       .  A
C1585      H1591   1.082       .  S
O1586      C1587   1.330       .  A
C1587      C1588   1.390       .  A
C1588      H1592   1.083       .  S
C1593      C1598   1.382       .  A
C1593      C1594   1.403       .  A
C1593      O1599   1.319       .  A
C1594      C1595   1.403       .  A
C1594      H1605   1.083       .  S
C1595      C1604   1.362       .  A
C1595      C1596   1.381       .  A
C1596      C1597   1.399       .  A
C1596      O1602   1.316       .  A
C1597      C1598   1.398       .  A
C1597      H1606   1.083       .  S
C1598      C1601   1.356       .  A
O1599      C1600   1.329       .  A
C1600      C1601   1.387       .  A
C1601      H1607   1.082       .  S
O1602      C1603   1.328       .  A
C1603      C1604   1.391       .  A
C1604      H1608   1.083       .  S
C1609      C1614   1.378       .  A
C1609      C1610   1.408       .  A
C1609      O1615   1.322       .  A
C1610      C1611   1.407       .  A
C1610      H1621   1.082       .  S
C1611      C1620   1.367       .  A
C1611      C1612   1.380       .  A
C1612      C1613   1.403       .  A
C1612      O1618   1.319       .  A
C1613      C1614   1.403       .  A
C1613      H1622   1.083       .  S
C1614      C1617   1.361       .  A
O1615      C1616   1.334       .  A
C1616      C1617   1.394       .  A
C1617      H1623   1.081       .  S
O1618      C1619   1.330       .  A
C1619      C1620   1.394       .  A
C1620      H1624   1.082       .  S
C1625      C1630   1.378       .  A
C1625      C1626   1.408       .  A
C1625      O1631   1.323       .  A
C1626      C1627   1.408       .  A
C1626      H1637   1.083       .  S
C1627      C1636   1.368       .  A
C1627      C1628   1.380       .  A
C1628      C1629   1.405       .  A
C1628      O1634   1.321       .  A
C1629      C1630   1.404       .  A
C1629      H1638   1.083       .  S
C1630      C1633   1.363       .  A
O1631      C1632   1.334       .  A
C1632      C1633   1.394       .  A
C1633      H1639   1.082       .  S
O1634      C1635   1.332       .  A
C1635      C1636   1.395       .  A
C1636      H1640   1.083       .  S
C1641      C1646   1.379       .  A
C1641      C1642   1.405       .  A
C1641      O1647   1.320       .  A
C1642      C1643   1.404       .  A
C1642      H1653   1.082       .  S
C1643      C1652   1.363       .  A
C1643      C1644   1.380       .  A
C1644      C1645   1.403       .  A
C1644      O1650   1.319       .  A
C1645      C1646   1.403       .  A
C1645      H1654   1.083       .  S
C1646      C1649   1.360       .  A
O1647      C1648   1.333       .  A
C1648      C1649   1.394       .  A
C1649      H1655   1.081       .  S
O1650      C1651   1.331       .  A
C1651      C1652   1.392       .  A
C1652      H1656   1.082       .  S
C1657      C1662   1.382       .  A
C1657      C1658   1.399       .  A
C1657      O1663   1.315       .  A
C1658      C1659   1.398       .  A
C1658      H1669   1.083       .  S
C1659      C1668   1.355       .  A
C1659      C1660   1.380       .  A
C1660      C1661   1.400       .  A
C1660      O1666   1.315       .  A
C1661      C1662   1.400       .  A
C1661      H1670   1.083       .  S
C1662      C1665   1.358       .  A
O1663      C1664   1.328       .  A
C1664      C1665   1.389       .  A
C1665      H1671   1.083       .  S
O1666      C1667   1.328       .  A
C1667      C1668   1.392       .  A
C1668      H1672   1.081       .  S
C1673      C1678   1.381       .  A
C1673      C1674   1.397       .  A
C1673      O1679   1.312       .  A
C1674      C1675   1.396       .  A
C1674      H1685   1.083       .  S
C1675      C1684   1.355       .  A
C1675      C1676   1.382       .  A
C1676      C1677   1.402       .  A
C1676      O1682   1.317       .  A
C1677      C1678   1.400       .  A
C1677      H1686   1.083       .  S
C1678      C1681   1.359       .  A
O1679      C1680   1.328       .  A
C1680      C1681   1.390       .  A
C1681      H1687   1.082       .  S
O1682      C1683   1.329       .  A
C1683      C1684   1.387       .  A
C1684      H1688   1.083       .  S
C1689      C1694   1.382   1_455  A
C1689      C1690   1.400   1_455  A
C1689      O1695   1.315       .  A
C1690      C1691   1.399       .  A
C1690      H1701   1.083       .  S
C1691      C1700   1.358       .  A
C1691      C1692   1.382       .  A
C1692      C1693   1.399       .  A
C1692      O1698   1.315       .  A
C1693      C1694   1.398       .  A
C1693      H1702   1.083       .  S
C1694      C1697   1.357   1_655  A
O1695      C1696   1.328       .  A
C1696      C1697   1.388       .  A
C1697      H1703   1.082       .  S
O1698      C1699   1.328       .  A
C1699      C1700   1.389       .  A
C1700      H1704   1.083       .  S
C1705      C1710   1.381       .  A
C1705      C1706   1.403       .  A
C1705      O1711   1.318       .  A
C1706      C1707   1.402   1_556  A
C1706      H1717   1.083       .  S
C1707      C1716   1.361       .  A
C1707      C1708   1.381       .  A
C1708      C1709   1.398   1_554  A
C1708      O1714   1.313       .  A
C1709      C1710   1.398       .  A
C1709      H1718   1.083       .  S
C1710      C1713   1.356       .  A
O1711      C1712   1.330       .  A
C1712      C1713   1.388       .  A
C1713      H1719   1.083       .  S
O1714      C1715   1.328       .  A
C1715      C1716   1.392       .  A
C1716      H1720   1.082       .  S
C1721      C1726   1.382       .  A
C1721      C1722   1.401       .  A
C1721      O1727   1.316       .  A
C1722      C1723   1.400       .  A
C1722      H1733   1.083       .  S
C1723      C1732   1.360       .  A
C1723      C1724   1.382       .  A
C1724      C1725   1.399       .  A
C1724      O1730   1.315       .  A
C1725      C1726   1.398       .  A
C1725      H1734   1.083       .  S
C1726      C1729   1.357       .  A
O1727      C1728   1.329       .  A
C1728      C1729   1.389       .  A
C1729      H1735   1.082       .  S
O1730      C1731   1.328       .  A
C1731      C1732   1.389       .  A
C1732      H1736   1.083       .  S
C1737      C1742   1.382       .  A
C1737      C1738   1.399       .  A
C1737      O1743   1.314       .  A
C1738      C1739   1.398       .  A
C1738      H1749   1.083       .  S
C1739      C1748   1.357   1_565  A
C1739      C1740   1.382       .  A
C1740      C1741   1.400       .  A
C1740      O1746   1.315   1_565  A
C1741      C1742   1.399       .  A
C1741      H1750   1.083       .  S
C1742      C1745   1.358       .  A
O1743      C1744   1.328       .  A
C1744      C1745   1.388       .  A
C1745      H1751   1.083       .  S
O1746      C1747   1.329       .  A
C1747      C1748   1.389       .  A
C1748      H1752   1.082       .  S
C1753      C1758   1.380       .  A
C1753      C1754   1.408       .  A
C1753      O1759   1.324       .  A
C1754      C1755   1.408       .  A
C1754      H1765   1.082       .  S
C1755      C1764   1.367       .  A
C1755      C1756   1.379       .  A
C1756      C1757   1.403       .  A
C1756      O1762   1.318       .  A
C1757      C1758   1.402       .  A
C1757      H1766   1.083       .  S
C1758      C1761   1.360       .  A
O1759      C1760   1.334       .  A
C1760      C1761   1.392       .  A
C1761      H1767   1.083       .  S
O1762      C1763   1.331       .  A
C1763      C1764   1.396       .  A
C1764      H1768   1.082       .  S
C1769      C1774   1.379       .  A
C1769      C1770   1.402       .  A
C1769      O1775   1.319       .  A
C1770      C1771   1.402       .  A
C1770      H1781   1.083       .  S
C1771      C1780   1.360       .  A
C1771      C1772   1.380       .  A
C1772      C1773   1.406       .  A
C1772      O1778   1.323       .  A
C1773      C1774   1.406       .  A
C1773      H1782   1.083       .  S
C1774      C1777   1.362       .  A
O1775      C1776   1.331       .  A
C1776      C1777   1.396       .  A
C1777      H1783   1.081       .  S
O1778      C1779   1.333       .  A
C1779      C1780   1.391       .  A
C1780      H1784   1.083       .  S
C1785      C1790   1.380       .  A
C1785      C1786   1.405       .  A
C1785      O1791   1.321       .  A
C1786      C1787   1.405       .  A
C1786      H1797   1.082       .  S
C1787      C1796   1.364       .  A
C1787      C1788   1.379       .  A
C1788      C1789   1.405       .  A
C1788      O1794   1.320       .  A
C1789      C1790   1.404       .  A
C1789      H1798   1.083       .  S
C1790      C1793   1.363       .  A
O1791      C1792   1.332       .  A
C1792      C1793   1.393       .  A
C1793      H1799   1.083       .  S
O1794      C1795   1.332       .  A
C1795      C1796   1.394       .  A
C1796      H1800   1.082       .  S
C1801      C1806   1.381       .  A
C1801      C1802   1.403       .  A
C1801      O1807   1.320       .  A
C1802      C1803   1.403       .  A
C1802      H1813   1.083       .  S
C1803      C1812   1.362       .  A
C1803      C1804   1.380       .  A
C1804      C1805   1.407       .  A
C1804      O1810   1.322       .  A
C1805      C1806   1.407       .  A
C1805      H1814   1.083       .  S
C1806      C1809   1.366       .  A
O1807      C1808   1.331       .  A
C1808      C1809   1.393       .  A
C1809      H1815   1.083       .  S
O1810      C1811   1.333       .  A
C1811      C1812   1.392       .  A
C1812      H1816   1.082       .  S
C1817      C1822   1.381       .  A
C1817      C1818   1.404       .  A
C1817      O1823   1.321       .  A
C1818      C1819   1.404       .  A
C1818      H1829   1.083       .  S
C1819      C1828   1.362       .  A
C1819      C1820   1.380       .  A
C1820      C1821   1.403       .  A
C1820      O1826   1.319       .  A
C1821      C1822   1.403       .  A
C1821      H1830   1.083       .  S
C1822      C1825   1.361       .  A
O1823      C1824   1.331       .  A
C1824      C1825   1.390       .  A
C1825      H1831   1.083       .  S
O1826      C1827   1.331       .  A
C1827      C1828   1.391       .  A
C1828      H1832   1.082       .  S
C1833      C1838   1.381       .  A
C1833      C1834   1.404       .  A
C1833      O1839   1.319       .  A
C1834      C1835   1.403       .  A
C1834      H1845   1.083       .  S
C1835      C1844   1.363       .  A
C1835      C1836   1.381       .  A
C1836      C1837   1.401       .  A
C1836      O1842   1.317       .  A
C1837      C1838   1.400       .  A
C1837      H1846   1.083       .  S
C1838      C1841   1.359       .  A
O1839      C1840   1.331       .  A
C1840      C1841   1.389       .  A
C1841      H1847   1.083       .  S
O1842      C1843   1.329       .  A
C1843      C1844   1.391       .  A
C1844      H1848   1.083       .  S
C1849      C1854   1.381       .  A
C1849      C1850   1.398       .  A
C1849      O1855   1.315       .  A
C1850      C1851   1.397       .  A
C1850      H1861   1.083       .  S
C1851      C1860   1.355       .  A
C1851      C1852   1.382       .  A
C1852      C1853   1.405       .  A
C1852      O1858   1.321       .  A
C1853      C1854   1.405       .  A
C1853      H1862   1.083       .  S
C1854      C1857   1.364       .  A
O1855      C1856   1.328       .  A
C1856      C1857   1.393       .  A
C1857      H1863   1.083       .  S
O1858      C1859   1.330       .  A
C1859      C1860   1.385       .  A
C1860      H1864   1.082       .  S
C1865      C1870   1.383       .  A
C1865      C1866   1.401       .  A
C1865      O1871   1.318       .  A
C1866      C1867   1.401       .  A
C1866      H1877   1.082       .  S
C1867      C1876   1.359       .  A
C1867      C1868   1.382       .  A
C1868      C1869   1.398       .  A
C1868      O1874   1.315       .  A
C1869      C1870   1.397       .  A
C1869      H1878   1.083       .  S
C1870      C1873   1.354       .  A
O1871      C1872   1.327       .  A
C1872      C1873   1.385       .  A
C1873      H1879   1.082       .  S
O1874      C1875   1.328       .  A
C1875      C1876   1.390       .  A
C1876      H1880   1.083       .  S
C1881      C1886   1.382   1_655  A
C1881      C1882   1.404   1_655  A
C1881      O1887   1.321       .  A
C1882      C1883   1.404       .  A
C1882      H1893   1.083       .  S
C1883      C1892   1.362       .  A
C1883      C1884   1.381       .  A
C1884      C1885   1.400       .  A
C1884      O1890   1.317       .  A
C1885      C1886   1.400       .  A
C1885      H1894   1.083       .  S
C1886      C1889   1.357   1_455  A
O1887      C1888   1.329       .  A
C1888      C1889   1.386       .  A
C1889      H1895   1.082       .  S
O1890      C1891   1.329       .  A
C1891      C1892   1.393       .  A
C1892      H1896   1.083       .  S
C1897      C1902   1.381       .  A
C1897      C1898   1.403       .  A
C1897      O1903   1.317       .  A
C1898      C1899   1.401       .  A
C1898      H1909   1.083       .  S
C1899      C1908   1.361       .  A
C1899      C1900   1.383       .  A
C1900      C1901   1.399       .  A
C1900      O1906   1.314       .  A
C1901      C1902   1.398       .  A
C1901      H1910   1.083       .  S
C1902      C1905   1.358       .  A
O1903      C1904   1.330       .  A
C1904      C1905   1.388       .  A
C1905      H1911   1.083       .  S
O1906      C1907   1.327       .  A
C1907      C1908   1.389       .  A
C1908      H1912   1.082       .  S
C1913      C1918   1.382       .  A
C1913      C1914   1.400       .  A
C1913      O1919   1.316       .  A
C1914      C1915   1.399       .  A
C1914      H1925   1.083       .  S
C1915      C1924   1.359       .  A
C1915      C1916   1.381       .  A
C1916      C1917   1.404       .  A
C1916      O1922   1.319       .  A
C1917      C1918   1.403       .  A
C1917      H1926   1.083       .  S
C1918      C1921   1.363       .  A
O1919      C1920   1.327       .  A
C1920      C1921   1.388       .  A
C1921      H1927   1.082       .  S
O1922      C1923   1.331       .  A
C1923      C1924   1.390       .  A
C1924      H1928   1.083       .  S
C1929      C1934   1.383       .  A
C1929      C1930   1.396       .  A
C1929      O1935   1.312       .  A
C1930      C1931   1.395       .  A
C1930      H1941   1.083       .  S
C1931      C1940   1.354       .  A
C1931      C1932   1.381       .  A
C1932      C1933   1.405       .  A
C1932      O1938   1.320       .  A
C1933      C1934   1.404       .  A
C1933      H1942   1.082       .  S
C1934      C1937   1.364       .  A
O1935      C1936   1.326       .  A
C1936      C1937   1.390       .  A
C1937      H1943   1.082       .  S
O1938      C1939   1.332       .  A
C1939      C1940   1.387       .  A
C1940      H1944   1.083       .  S
C1945      C1950   1.380       .  A
C1945      C1946   1.406       .  A
C1945      O1951   1.322       .  A
C1946      C1947   1.406       .  A
C1946      H1957   1.083       .  S
C1947      C1956   1.365       .  A
C1947      C1948   1.380       .  A
C1948      C1949   1.407       .  A
C1948      O1954   1.323       .  A
C1949      C1950   1.407       .  A
C1949      H1958   1.083       .  S
C1950      C1953   1.367       .  A
O1951      C1952   1.333       .  A
C1952      C1953   1.393       .  A
C1953      H1959   1.083       .  S
O1954      C1955   1.333       .  A
C1955      C1956   1.392       .  A
C1956      H1960   1.082       .  S
C1961      C1966   1.380       .  A
C1961      C1962   1.406       .  A
C1961      O1967   1.321       .  A
C1962      C1963   1.406       .  A
C1962      H1973   1.083       .  S
C1963      C1972   1.366       .  A
C1963      C1964   1.380       .  A
C1964      C1965   1.406       .  A
C1964      O1970   1.322       .  A
C1965      C1966   1.405       .  A
C1965      H1974   1.083       .  S
C1966      C1969   1.365       .  A
O1967      C1968   1.333       .  A
C1968      C1969   1.392       .  A
C1969      H1975   1.082       .  S
O1970      C1971   1.333       .  A
C1971      C1972   1.393       .  A
C1972      H1976   1.083       .  S
C1977      C1982   1.381       .  A
C1977      C1978   1.404       .  A
C1977      O1983   1.321       .  A
C1978      C1979   1.404       .  A
C1978      H1989   1.083       .  S
C1979      C1988   1.363       .  A
C1979      C1980   1.380       .  A
C1980      C1981   1.407       .  A
C1980      O1986   1.323       .  A
C1981      C1982   1.406       .  A
C1981      H1990   1.083       .  S
C1982      C1985   1.365       .  A
O1983      C1984   1.331       .  A
C1984      C1985   1.393       .  A
C1985      H1991   1.082       .  S
O1986      C1987   1.333       .  A
C1987      C1988   1.392       .  A
C1988      H1992   1.083       .  S
C1993      C1998   1.377       .  A
C1993      C1994   1.407       .  A
C1993      O1999   1.321       .  A
C1994      C1995   1.406       .  A
C1994      H2005   1.082       .  S
C1995      C2004   1.365       .  A
C1995      C1996   1.380       .  A
C1996      C1997   1.402       .  A
C1996      O2002   1.318       .  A
C1997      C1998   1.401       .  A
C1997      H2006   1.082       .  S
C1998      C2001   1.358       .  A
O1999      C2000   1.334       .  A
C2000      C2001   1.395       .  A
C2001      H2007   1.078       .  S
O2002      C2003   1.331       .  A
C2003      C2004   1.393       .  A
C2004      H2008   1.082       .  S
C2009      C2014   1.379       .  A
C2009      C2010   1.406       .  A
C2009      O2015   1.321       .  A
C2010      C2011   1.406       .  A
C2010      H2021   1.083       .  S
C2011      C2020   1.364       .  A
C2011      C2012   1.380       .  A
C2012      C2013   1.404       .  A
C2012      O2018   1.321       .  A
C2013      C2014   1.403       .  A
C2013      H2022   1.083       .  S
C2014      C2017   1.361       .  A
O2015      C2016   1.333       .  A
C2016      C2017   1.393       .  A
C2017      H2023   1.082       .  S
O2018      C2019   1.331       .  A
C2019      C2020   1.394       .  A
C2020      H2024   1.083       .  S
C2025      C2030   1.380       .  A
C2025      C2026   1.403       .  A
C2025      O2031   1.319       .  A
C2026      C2027   1.403       .  A
C2026      H2037   1.082       .  S
C2027      C2036   1.360       .  A
C2027      C2028   1.377       .  A
C2028      C2029   1.407       .  A
C2028      O2034   1.322       .  A
C2029      C2030   1.406       .  A
C2029      H2038   1.082       .  S
C2030      C2033   1.366       .  A
O2031      C2032   1.331       .  A
C2032      C2033   1.393       .  A
C2033      H2039   1.082       .  S
O2034      C2035   1.334       .  A
C2035      C2036   1.396       .  A
C2036      H2040   1.079       .  S
C2041      C2046   1.381       .  A
C2041      C2042   1.400       .  A
C2041      O2047   1.315       .  A
C2042      C2043   1.399       .  A
C2042      H2053   1.083       .  S
C2043      C2052   1.358       .  A
C2043      C2044   1.383       .  A
C2044      C2045   1.400       .  A
C2044      O2050   1.316       .  A
C2045      C2046   1.400       .  A
C2045      H2054   1.083       .  S
C2046      C2049   1.358       .  A
O2047      C2048   1.329       .  A
C2048      C2049   1.389       .  A
C2049      H2055   1.083       .  S
O2050      C2051   1.327       .  A
C2051      C2052   1.386       .  A
C2052      H2056   1.082       .  S
C2057      C2062   1.381       .  A
C2057      C2058   1.402       .  A
C2057      O2063   1.317       .  A
C2058      C2059   1.401       .  A
C2058      H2069   1.083       .  S
C2059      C2068   1.361       .  A
C2059      C2060   1.383       .  A
C2060      C2061   1.399       .  A
C2060      O2066   1.315       .  A
C2061      C2062   1.399       .  A
C2061      H2070   1.083       .  S
C2062      C2065   1.358       .  A
O2063      C2064   1.330       .  A
C2064      C2065   1.389       .  A
C2065      H2071   1.083       .  S
O2066      C2067   1.327       .  A
C2067      C2068   1.387       .  A
C2068      H2072   1.082       .  S
C2073      C2078   1.381       .  A
C2073      C2074   1.400       .  A
C2073      O2079   1.315       .  A
C2074      C2075   1.399       .  A
C2074      H2085   1.083       .  S
C2075      C2084   1.358       .  A
C2075      C2076   1.383       .  A
C2076      C2077   1.401       .  A
C2076      O2082   1.317       .  A
C2077      C2078   1.401       .  A
C2077      H2086   1.083       .  S
C2078      C2081   1.360       .  A
O2079      C2080   1.329       .  A
C2080      C2081   1.390       .  A
C2081      H2087   1.083       .  S
O2082      C2083   1.327       .  A
C2083      C2084   1.386       .  A
C2084      H2088   1.082       .  S
C2089      C2094   1.381       .  A
C2089      C2090   1.400       .  A
C2089      O2095   1.316       .  A
C2090      C2091   1.400       .  A
C2090      H2101   1.083       .  S
C2091      C2100   1.359       .  A
C2091      C2092   1.383       .  A
C2092      C2093   1.400       .  A
C2092      O2098   1.316       .  A
C2093      C2094   1.399       .  A
C2093      H2102   1.083       .  S
C2094      C2097   1.358       .  A
O2095      C2096   1.329       .  A
C2096      C2097   1.390       .  A
C2097      H2103   1.083       .  S
O2098      C2099   1.327       .  A
C2099      C2100   1.387       .  A
C2100      H2104   1.082       .  S
C2105      C2110   1.383       .  A
C2105      C2106   1.400       .  A
C2105      O2111   1.316       .  A
C2106      C2107   1.399       .  A
C2106      H2117   1.083       .  S
C2107      C2116   1.359       .  A
C2107      C2108   1.381       .  A
C2108      C2109   1.401       .  A
C2108      O2114   1.316       .  A
C2109      C2110   1.400       .  A
C2109      H2118   1.083       .  S
C2110      C2113   1.360       .  A
O2111      C2112   1.327       .  A
C2112      C2113   1.387       .  A
C2113      H2119   1.082       .  S
O2114      C2115   1.329       .  A
C2115      C2116   1.390       .  A
C2116      H2120   1.083       .  S
C2121      C2126   1.382       .  A
C2121      C2122   1.398       .  A
C2121      O2127   1.314       .  A
C2122      C2123   1.397       .  A
C2122      H2133   1.083       .  S
C2123      C2132   1.355   1_554  A
C2123      C2124   1.383   1_554  A
C2124      C2125   1.400   1_556  A
C2124      O2130   1.316       .  A
C2125      C2126   1.400       .  A
C2125      H2134   1.083       .  S
C2126      C2129   1.359       .  A
O2127      C2128   1.327       .  A
C2128      C2129   1.390       .  A
C2129      H2135   1.083       .  S
O2130      C2131   1.327       .  A
C2131      C2132   1.386       .  A
C2132      H2136   1.082       .  S
C2137      C2142   1.380       .  A
C2137      C2138   1.401       .  A
C2137      O2143   1.318       .  A
C2138      C2139   1.401       .  A
C2138      H2149   1.082       .  S
C2139      C2148   1.358       .  A
C2139      C2140   1.377       .  A
C2140      C2141   1.406       .  A
C2140      O2146   1.320       .  A
C2141      C2142   1.405       .  A
C2141      H2150   1.082       .  S
C2142      C2145   1.364       .  A
O2143      C2144   1.330       .  A
C2144      C2145   1.393       .  A
C2145      H2151   1.082       .  S
O2146      C2147   1.334       .  A
C2147      C2148   1.396       .  A
C2148      H2152   1.077       .  S
C2153      C2158   1.379       .  A
C2153      C2154   1.403       .  A
C2153      O2159   1.317       .  A
C2154      C2155   1.402       .  A
C2154      H2165   1.083       .  S
C2155      C2164   1.362       .  A
C2155      C2156   1.380       .  A
C2156      C2157   1.406       .  A
C2156      O2162   1.320       .  A
C2157      C2158   1.405       .  A
C2157      H2166   1.083       .  S
C2158      C2161   1.365       .  A
O2159      C2160   1.331       .  A
C2160      C2161   1.395       .  A
C2161      H2167   1.082       .  S
O2162      C2163   1.333       .  A
C2163      C2164   1.391       .  A
C2164      H2168   1.083       .  S
C2169      C2174   1.380       .  A
C2169      C2170   1.402       .  A
C2169      O2175   1.318       .  A
C2170      C2171   1.402       .  A
C2170      H2181   1.083       .  S
C2171      C2180   1.360       .  A
C2171      C2172   1.381       .  A
C2172      C2173   1.404       .  A
C2172      O2178   1.320       .  A
C2173      C2174   1.403       .  A
C2173      H2182   1.083       .  S
C2174      C2177   1.362       .  A
O2175      C2176   1.330       .  A
C2176      C2177   1.391       .  A
C2177      H2183   1.081       .  S
O2178      C2179   1.331       .  A
C2179      C2180   1.390       .  A
C2180      H2184   1.083       .  S
C2185      C2190   1.377       .  A
C2185      C2186   1.408       .  A
C2185      O2191   1.321       .  A
C2186      C2187   1.406       .  A
C2186      H2197   1.082       .  S
C2187      C2196   1.368       .  A
C2187      C2188   1.380       .  A
C2188      C2189   1.402       .  A
C2188      O2194   1.316       .  A
C2189      C2190   1.401       .  A
C2189      H2198   1.082       .  S
C2190      C2193   1.359       .  A
O2191      C2192   1.335       .  A
C2192      C2193   1.395       .  A
C2193      H2199   1.078       .  S
O2194      C2195   1.330       .  A
C2195      C2196   1.394       .  A
C2196      H2200   1.082       .  S
C2201      C2206   1.380       .  A
C2201      C2202   1.404       .  A
C2201      O2207   1.319       .  A
C2202      C2203   1.403       .  A
C2202      H2213   1.083       .  S
C2203      C2212   1.362       .  A
C2203      C2204   1.381       .  A
C2204      C2205   1.403       .  A
C2204      O2210   1.319       .  A
C2205      C2206   1.403       .  A
C2205      H2214   1.083       .  S
C2206      C2209   1.361       .  A
O2207      C2208   1.331       .  A
C2208      C2209   1.391       .  A
C2209      H2215   1.082       .  S
O2210      C2211   1.331       .  A
C2211      C2212   1.391       .  A
C2212      H2216   1.083       .  S
C2217      C2222   1.381       .  A
C2217      C2218   1.405       .  A
C2217      O2223   1.320       .  A
C2218      C2219   1.404       .  A
C2218      H2229   1.082       .  S
C2219      C2228   1.364       .  A
C2219      C2220   1.381       .  A
C2220      C2221   1.403       .  A
C2220      O2226   1.318       .  A
C2221      C2222   1.402       .  A
C2221      H2230   1.083       .  S
C2222      C2225   1.362       .  A
O2223      C2224   1.332       .  A
C2224      C2225   1.391       .  A
C2225      H2231   1.083       .  S
O2226      C2227   1.330       .  A
C2227      C2228   1.390       .  A
C2228      H2232   1.082       .  S
C2233      C2238   1.381       .  A
C2233      C2234   1.404       .  A
C2233      O2239   1.319       .  A
C2234      C2235   1.404       .  A
C2234      H2245   1.083       .  S
C2235      C2244   1.363       .  A
C2235      C2236   1.381       .  A
C2236      C2237   1.401       .  A
C2236      O2242   1.317       .  A
C2237      C2238   1.401       .  A
C2237      H2246   1.083       .  S
C2238      C2241   1.360       .  A
O2239      C2240   1.331       .  A
C2240      C2241   1.389       .  A
C2241      H2247   1.082       .  S
O2242      C2243   1.329       .  A
C2243      C2244   1.392       .  A
C2244      H2248   1.083       .  S
C2249      C2254   1.380       .  A
C2249      C2250   1.405       .  A
C2249      O2255   1.321       .  A
C2250      C2251   1.405       .  A
C2250      H2261   1.083       .  S
C2251      C2260   1.364       .  A
C2251      C2252   1.381       .  A
C2252      C2253   1.403       .  A
C2252      O2258   1.319       .  A
C2253      C2254   1.402       .  A
C2253      H2262   1.083       .  S
C2254      C2257   1.361       .  A
O2255      C2256   1.332       .  A
C2256      C2257   1.391       .  A
C2257      H2263   1.083       .  S
O2258      C2259   1.330       .  A
C2259      C2260   1.391       .  A
C2260      H2264   1.082       .  S
C2265      C2270   1.379       .  A
C2265      C2266   1.406       .  A
C2265      O2271   1.321       .  A
C2266      C2267   1.405       .  A
C2266      H2277   1.083       .  S
C2267      C2276   1.365       .  A
C2267      C2268   1.380       .  A
C2268      C2269   1.403       .  A
C2268      O2274   1.319       .  A
C2269      C2270   1.403       .  A
C2269      H2278   1.083       .  S
C2270      C2273   1.361       .  A
O2271      C2272   1.333       .  A
C2272      C2273   1.393       .  A
C2273      H2279   1.082       .  S
O2274      C2275   1.331       .  A
C2275      C2276   1.393       .  A
C2276      H2280   1.083       .  S
C2281      C2286   1.380       .  A
C2281      C2282   1.403       .  A
C2281      O2287   1.319       .  A
C2282      C2283   1.403       .  A
C2282      H2293   1.083       .  S
C2283      C2292   1.361       .  A
C2283      C2284   1.381       .  A
C2284      C2285   1.406       .  A
C2284      O2290   1.322       .  A
C2285      C2286   1.405       .  A
C2285      H2294   1.083       .  S
C2286      C2289   1.365       .  A
O2287      C2288   1.331       .  A
C2288      C2289   1.393       .  A
C2289      H2295   1.083       .  S
O2290      C2291   1.332       .  A
C2291      C2292   1.390       .  A
C2292      H2296   1.082       .  S
C2297      C2302   1.378       .  A
C2297      C2298   1.406       .  A
C2297      O2303   1.321       .  A
C2298      C2299   1.405       .  A
C2298      H2309   1.082       .  S
C2299      C2308   1.364       .  A
C2299      C2300   1.380       .  A
C2300      C2301   1.403       .  A
C2300      O2306   1.319       .  A
C2301      C2302   1.402       .  A
C2301      H2310   1.082       .  S
C2302      C2305   1.359       .  A
O2303      C2304   1.334       .  A
C2304      C2305   1.396       .  A
C2305      H2311   1.079       .  S
O2306      C2307   1.331       .  A
C2307      C2308   1.393       .  A
C2308      H2312   1.082       .  S
C2313      C2318   1.376       .  A
C2313      C2314   1.407       .  A
C2313      O2319   1.322       .  A
C2314      C2315   1.407       .  A
C2314      H2325   1.082       .  S
C2315      C2324   1.365       .  A
C2315      C2316   1.380       .  A
C2316      C2317   1.400       .  A
C2316      O2322   1.317       .  A
C2317      C2318   1.400       .  A
C2317      H2326   1.082       .  S
C2318      C2321   1.355       .  A
O2319      C2320   1.335       .  A
C2320      C2321   1.396       .  A
C2321      H2327   1.075       .  S
O2322      C2323   1.330       .  A
C2323      C2324   1.394       .  A
C2324      H2328   1.082       .  S
C2329      C2334   1.377       .  A
C2329      C2330   1.406       .  A
C2329      O2335   1.321       .  A
C2330      C2331   1.406       .  A
C2330      H2341   1.082       .  S
C2331      C2340   1.364       .  A
C2331      C2332   1.380       .  A
C2332      C2333   1.404       .  A
C2332      O2338   1.320       .  A
C2333      C2334   1.404       .  A
C2333      H2342   1.082       .  S
C2334      C2337   1.361       .  A
O2335      C2336   1.334       .  A
C2336      C2337   1.396       .  A
C2337      H2343   1.079       .  S
O2338      C2339   1.331       .  A
C2339      C2340   1.393       .  A
C2340      H2344   1.082       .  S
C2345      C2350   1.380       .  A
C2345      C2346   1.401       .  A
C2345      O2351   1.318       .  A
C2346      C2347   1.401       .  A
C2346      H2357   1.082       .  S
C2347      C2356   1.357       .  A
C2347      C2348   1.377       .  A
C2348      C2349   1.406       .  A
C2348      O2354   1.322       .  A
C2349      C2350   1.406       .  A
C2349      H2358   1.082       .  S
C2350      C2353   1.364       .  A
O2351      C2352   1.330       .  A
C2352      C2353   1.393       .  A
C2353      H2359   1.082       .  S
O2354      C2355   1.334       .  A
C2355      C2356   1.396       .  A
C2356      H2360   1.078       .  S
C2361      C2366   1.379       .  A
C2361      C2362   1.404       .  A
C2361      O2367   1.320       .  A
C2362      C2363   1.405       .  A
C2362      H2373   1.083       .  S
C2363      C2372   1.363       .  A
C2363      C2364   1.380       .  A
C2364      C2365   1.406       .  A
C2364      O2370   1.322       .  A
C2365      C2366   1.405       .  A
C2365      H2374   1.083       .  S
C2366      C2369   1.364       .  A
O2367      C2368   1.332       .  A
C2368      C2369   1.394       .  A
C2369      H2375   1.082       .  S
O2370      C2371   1.333       .  A
C2371      C2372   1.393       .  A
C2372      H2376   1.083       .  S
C2377      C2382   1.381       .  A
C2377      C2378   1.404       .  A
C2377      O2383   1.321       .  A
C2378      C2379   1.404       .  A
C2378      H2389   1.083       .  S
C2379      C2388   1.363       .  A
C2379      C2380   1.380       .  A
C2380      C2381   1.405       .  A
C2380      O2386   1.321       .  A
C2381      C2382   1.405       .  A
C2381      H2390   1.083       .  S
C2382      C2385   1.363       .  A
O2383      C2384   1.331       .  A
C2384      C2385   1.391       .  A
C2385      H2391   1.083       .  S
O2386      C2387   1.332       .  A
C2387      C2388   1.392       .  A
C2388      H2392   1.083       .  S
C2393      C2398   1.381       .  A
C2393      C2394   1.402       .  A
C2393      O2399   1.319       .  A
C2394      C2395   1.401       .  A
C2394      H2405   1.082       .  S
C2395      C2404   1.359       .  A
C2395      C2396   1.381       .  A
C2396      C2397   1.405       .  A
C2396      O2402   1.321       .  A
C2397      C2398   1.404       .  A
C2397      H2406   1.082       .  S
C2398      C2401   1.362       .  A
O2399      C2400   1.329       .  A
C2400      C2401   1.391       .  A
C2401      H2407   1.082       .  S
O2402      C2403   1.332       .  A
C2403      C2404   1.391       .  A
C2404      H2408   1.083       .  S
C2409      C2414   1.380       .  A
C2409      C2410   1.407       .  A
C2409      O2415   1.323       .  A
C2410      C2411   1.406       .  A
C2410      H2421   1.083       .  S
C2411      C2420   1.364       .  A
C2411      C2412   1.380       .  A
C2412      C2413   1.405       .  A
C2412      O2418   1.321       .  A
C2413      C2414   1.405       .  A
C2413      H2422   1.083       .  S
C2414      C2417   1.364       .  A
O2415      C2416   1.333       .  A
C2416      C2417   1.392       .  A
C2417      H2423   1.083       .  S
O2418      C2419   1.331       .  A
C2419      C2420   1.393       .  A
C2420      H2424   1.082       .  S
C2425      C2430   1.381       .  A
C2425      C2426   1.403       .  A
C2425      O2431   1.319       .  A
C2426      C2427   1.402       .  A
C2426      H2437   1.083       .  S
C2427      C2436   1.362       .  A
C2427      C2428   1.383       .  A
C2428      C2429   1.401       .  A
C2428      O2434   1.317       .  A
C2429      C2430   1.401       .  A
C2429      H2438   1.083       .  S
C2430      C2433   1.360       .  A
O2431      C2432   1.331       .  A
C2432      C2433   1.391       .  A
C2433      H2439   1.083       .  S
O2434      C2435   1.328       .  A
C2435      C2436   1.388       .  A
C2436      H2440   1.082       .  S
C2441      C2446   1.381       .  A
C2441      C2442   1.400       .  A
C2441      O2447   1.316       .  A
C2442      C2443   1.399       .  A
C2442      H2453   1.083       .  S
C2443      C2452   1.358       .  A
C2443      C2444   1.383       .  A
C2444      C2445   1.401       .  A
C2444      O2450   1.317       .  A
C2445      C2446   1.401       .  A
C2445      H2454   1.083       .  S
C2446      C2449   1.359       .  A
O2447      C2448   1.329       .  A
C2448      C2449   1.391       .  A
C2449      H2455   1.083       .  S
O2450      C2451   1.327       .  A
C2451      C2452   1.386       .  A
C2452      H2456   1.082       .  S
C2457      C2462   1.381       .  A
C2457      C2458   1.400       .  A
C2457      O2463   1.318       .  A
C2458      C2459   1.400       .  A
C2458      H2469   1.083       .  S
C2459      C2468   1.357       .  A
C2459      C2460   1.383       .  A
C2460      C2461   1.401       .  A
C2460      O2466   1.318       .  A
C2461      C2462   1.402       .  A
C2461      H2470   1.083       .  S
C2462      C2465   1.358       .  A
O2463      C2464   1.329       .  A
C2464      C2465   1.391       .  A
C2465      H2471   1.083       .  S
O2466      C2467   1.328       .  A
C2467      C2468   1.386       .  A
C2468      H2472   1.082       .  S
C2473      C2478   1.381       .  A
C2473      C2474   1.402       .  A
C2473      O2479   1.318       .  A
C2474      C2475   1.402       .  A
C2474      H2485   1.083       .  S
C2475      C2484   1.361       .  A
C2475      C2476   1.383       .  A
C2476      C2477   1.397       .  A
C2476      O2482   1.313       .  A
C2477      C2478   1.397       .  A
C2477      H2486   1.083       .  S
C2478      C2481   1.354       .  A
O2479      C2480   1.330       .  A
C2480      C2481   1.388       .  A
C2481      H2487   1.083       .  S
O2482      C2483   1.326       .  A
C2483      C2484   1.388       .  A
C2484      H2488   1.082       .  S
C2489      C2494   1.383       .  A
C2489      C2490   1.400   1_554  A
C2489      O2495   1.315       .  A
C2490      C2491   1.399       .  A
C2490      H2501   1.083       .  S
C2491      C2500   1.358       .  A
C2491      C2492   1.381       .  A
C2492      C2493   1.401       .  A
C2492      O2498   1.316       .  A
C2493      C2494   1.400   1_556  A
C2493      H2502   1.083       .  S
C2494      C2497   1.360       .  A
O2495      C2496   1.327       .  A
C2496      C2497   1.386       .  A
C2497      H2503   1.082       .  S
O2498      C2499   1.329       .  A
C2499      C2500   1.390       .  A
C2500      H2504   1.083       .  S
C2505      C2510   1.381       .  A
C2505      C2506   1.402       .  A
C2505      O2511   1.316       .  A
C2506      C2507   1.401       .  A
C2506      H2517   1.083       .  S
C2507      C2516   1.362       .  A
C2507      C2508   1.383       .  A
C2508      C2509   1.400       .  A
C2508      O2514   1.314       .  A
C2509      C2510   1.398       .  A
C2509      H2518   1.083       .  S
C2510      C2513   1.359       .  A
O2511      C2512   1.330       .  A
C2512      C2513   1.389       .  A
C2513      H2519   1.083       .  S
O2514      C2515   1.327       .  A
C2515      C2516   1.387       .  A
C2516      H2520   1.082       .  S
C2521      C2526   1.380       .  A
C2521      C2522   1.406       .  A
C2521      O2527   1.322       .  A
C2522      C2523   1.406       .  A
C2522      H2533   1.083       .  S
C2523      C2532   1.365       .  A
C2523      C2524   1.379       .  A
C2524      C2525   1.403       .  A
C2524      O2530   1.319       .  A
C2525      C2526   1.402       .  A
C2525      H2534   1.083       .  S
C2526      C2529   1.360       .  A
O2527      C2528   1.333       .  A
C2528      C2529   1.392       .  A
C2529      H2535   1.083       .  S
O2530      C2531   1.331       .  A
C2531      C2532   1.396       .  A
C2532      H2536   1.082       .  S
C2537      C2542   1.380       .  A
C2537      C2538   1.407       .  A
C2537      O2543   1.324       .  A
C2538      C2539   1.407       .  A
C2538      H2549   1.083       .  S
C2539      C2548   1.364       .  A
C2539      C2540   1.379       .  A
C2540      C2541   1.403       .  A
C2540      O2546   1.320       .  A
C2541      C2542   1.404       .  A
C2541      H2550   1.083       .  S
C2542      C2545   1.361       .  A
O2543      C2544   1.334       .  A
C2544      C2545   1.393       .  A
C2545      H2551   1.083       .  S
O2546      C2547   1.331       .  A
C2547      C2548   1.396       .  A
C2548      H2552   1.082       .  S
C2553      C2558   1.380       .  A
C2553      C2554   1.405       .  A
C2553      O2559   1.321       .  A
C2554      C2555   1.405       .  A
C2554      H2565   1.083       .  S
C2555      C2564   1.364       .  A
C2555      C2556   1.380       .  A
C2556      C2557   1.405       .  A
C2556      O2562   1.321       .  A
C2557      C2558   1.405       .  A
C2557      H2566   1.083       .  S
C2558      C2561   1.363       .  A
O2559      C2560   1.331       .  A
C2560      C2561   1.392       .  A
C2561      H2567   1.082       .  S
O2562      C2563   1.332       .  A
C2563      C2564   1.392       .  A
C2564      H2568   1.083       .  S
C2569      C2574   1.380       .  A
C2569      C2570   1.407       .  A
C2569      O2575   1.322       .  A
C2570      C2571   1.406       .  A
C2570      H2581   1.083       .  S
C2571      C2580   1.366       .  A
C2571      C2572   1.380       .  A
C2572      C2573   1.405       .  A
C2572      O2578   1.321       .  A
C2573      C2574   1.405       .  A
C2573      H2582   1.083       .  S
C2574      C2577   1.365       .  A
O2575      C2576   1.333       .  A
C2576      C2577   1.393       .  A
C2577      H2583   1.082       .  S
O2578      C2579   1.331       .  A
C2579      C2580   1.392       .  A
C2580      H2584   1.082       .  S
C2585      C2590   1.380       .  A
C2585      C2586   1.406       .  A
C2585      O2591   1.322       .  A
C2586      C2587   1.405       .  A
C2586      H2597   1.083       .  S
C2587      C2596   1.365       .  A
C2587      C2588   1.379       .  A
C2588      C2589   1.404       .  A
C2588      O2594   1.319       .  A
C2589      C2590   1.404       .  A
C2589      H2598   1.083       .  S
C2590      C2593   1.363       .  A
O2591      C2592   1.333       .  A
C2592      C2593   1.393       .  A
C2593      H2599   1.083       .  S
O2594      C2595   1.332       .  A
C2595      C2596   1.395       .  A
C2596      H2600   1.082       .  S
C2601      C2606   1.381       .  A
C2601      C2602   1.404       .  A
C2601      O2607   1.320       .  A
C2602      C2603   1.403       .  A
C2602      H2613   1.082       .  S
C2603      C2612   1.364       .  A
C2603      C2604   1.381       .  A
C2604      C2605   1.403       .  A
C2604      O2610   1.318       .  A
C2605      C2606   1.403       .  A
C2605      H2614   1.083       .  S
C2606      C2609   1.362       .  A
O2607      C2608   1.331       .  A
C2608      C2609   1.391       .  A
C2609      H2615   1.083       .  S
O2610      C2611   1.330       .  A
C2611      C2612   1.389       .  A
C2612      H2616   1.082       .  S
C2617      C2622   1.381       .  A
C2617      C2618   1.404       .  A
C2617      O2623   1.320       .  A
C2618      C2619   1.403       .  A
C2618      H2629   1.083       .  S
C2619      C2628   1.362       .  A
C2619      C2620   1.380       .  A
C2620      C2621   1.404       .  A
C2620      O2626   1.319       .  A
C2621      C2622   1.403       .  A
C2621      H2630   1.083       .  S
C2622      C2625   1.362       .  A
O2623      C2624   1.331       .  A
C2624      C2625   1.391       .  A
C2625      H2631   1.083       .  S
O2626      C2627   1.331       .  A
C2627      C2628   1.391       .  A
C2628      H2632   1.082       .  S
C2633      C2638   1.380       .  A
C2633      C2634   1.405       .  A
C2633      O2639   1.321       .  A
C2634      C2635   1.404       .  A
C2634      H2645   1.083       .  S
C2635      C2644   1.362       .  A
C2635      C2636   1.381       .  A
C2636      C2637   1.405       .  A
C2636      O2642   1.321       .  A
C2637      C2638   1.404       .  A
C2637      H2646   1.083       .  S
C2638      C2641   1.363       .  A
O2639      C2640   1.332       .  A
C2640      C2641   1.392       .  A
C2641      H2647   1.083       .  S
O2642      C2643   1.331       .  A
C2643      C2644   1.391       .  A
C2644      H2648   1.082       .  S
C2649      C2654   1.379       .  A
C2649      C2650   1.403       .  A
C2649      O2655   1.318       .  A
C2650      C2651   1.402       .  A
C2650      H2661   1.083       .  S
C2651      C2660   1.361       .  A
C2651      C2652   1.380       .  A
C2652      C2653   1.405       .  A
C2652      O2658   1.321       .  A
C2653      C2654   1.404       .  A
C2653      H2662   1.083       .  S
C2654      C2657   1.363       .  A
O2655      C2656   1.331       .  A
C2656      C2657   1.394       .  A
C2657      H2663   1.082       .  S
O2658      C2659   1.332       .  A
C2659      C2660   1.392       .  A
C2660      H2664   1.083       .  S
C2665      C2670   1.379       .  A
C2665      C2666   1.403       .  A
C2665      O2671   1.316       .  A
C2666      C2667   1.402       .  A
C2666      H2677   1.083       .  S
C2667      C2676   1.363       .  A
C2667      C2668   1.380       .  A
C2668      C2669   1.407       .  A
C2668      O2674   1.320       .  A
C2669      C2670   1.405       .  A
C2669      H2678   1.083       .  S
C2670      C2673   1.367       .  A
O2671      C2672   1.331       .  A
C2672      C2673   1.395       .  A
C2673      H2679   1.082       .  S
O2674      C2675   1.333       .  A
C2675      C2676   1.391       .  A
C2676      H2680   1.083       .  S
C2681      C2686   1.380       .  A
C2681      C2682   1.400       .  A
C2681      O2687   1.317       .  A
C2682      C2683   1.399       .  A
C2682      H2693   1.082       .  S
C2683      C2692   1.356       .  A
C2683      C2684   1.378       .  A
C2684      C2685   1.408       .  A
C2684      O2690   1.323       .  A
C2685      C2686   1.408       .  A
C2685      H2694   1.082       .  S
C2686      C2689   1.367       .  A
O2687      C2688   1.329       .  A
C2688      C2689   1.394       .  A
C2689      H2695   1.082       .  S
O2690      C2691   1.335       .  A
C2691      C2692   1.394       .  A
C2692      H2696   1.080       .  S
C2697      C2702   1.380       .  A
C2697      C2698   1.405       .  A
C2697      O2703   1.321       .  A
C2698      C2699   1.404       .  A
C2698      H2709   1.083       .  S
C2699      C2708   1.362       .  A
C2699      C2700   1.381       .  A
C2700      C2701   1.404       .  A
C2700      O2706   1.321       .  A
C2701      C2702   1.404       .  A
C2701      H2710   1.083       .  S
C2702      C2705   1.361       .  A
O2703      C2704   1.332       .  A
C2704      C2705   1.392       .  A
C2705      H2711   1.082       .  S
O2706      C2707   1.331       .  A
C2707      C2708   1.392       .  A
C2708      H2712   1.083       .  S
C2713      C2718   1.380       .  A
C2713      C2714   1.406       .  A
C2713      O2719   1.323       .  A
C2714      C2715   1.406       .  A
C2714      H2725   1.082       .  S
C2715      C2724   1.364       .  A
C2715      C2716   1.380       .  A
C2716      C2717   1.406       .  A
C2716      O2722   1.322       .  A
C2717      C2718   1.405       .  A
C2717      H2726   1.083       .  S
C2718      C2721   1.363       .  A
O2719      C2720   1.331       .  A
C2720      C2721   1.391       .  A
C2721      H2727   1.083       .  S
O2722      C2723   1.333       .  A
C2723      C2724   1.393       .  A
C2724      H2728   1.082       .  S
C2729      C2734   1.380       .  A
C2729      C2730   1.406       .  A
C2729      O2735   1.320       .  A
C2730      C2731   1.405       .  A
C2730      H2741   1.083       .  S
C2731      C2740   1.365       .  A
C2731      C2732   1.380       .  A
C2732      C2733   1.405       .  A
C2732      O2738   1.320       .  A
C2733      C2734   1.404       .  A
C2733      H2742   1.083       .  S
C2734      C2737   1.364       .  A
O2735      C2736   1.332       .  A
C2736      C2737   1.391       .  A
C2737      H2743   1.083       .  S
O2738      C2739   1.331       .  A
C2739      C2740   1.392       .  A
C2740      H2744   1.082       .  S
C2745      C2750   1.380       .  A
C2745      C2746   1.404       .  A
C2745      O2751   1.320       .  A
C2746      C2747   1.403       .  A
C2746      H2757   1.083       .  S
C2747      C2756   1.362       .  A
C2747      C2748   1.379       .  A
C2748      C2749   1.405       .  A
C2748      O2754   1.320       .  A
C2749      C2750   1.405       .  A
C2749      H2758   1.083       .  S
C2750      C2753   1.363       .  A
O2751      C2752   1.331       .  A
C2752      C2753   1.394       .  A
C2753      H2759   1.083       .  S
O2754      C2755   1.333       .  A
C2755      C2756   1.393       .  A
C2756      H2760   1.082       .  S
C2761      C2766   1.380       .  A
C2761      C2762   1.403       .  A
C2761      O2767   1.318       .  A
C2762      C2763   1.402       .  A
C2762      H2773   1.083       .  S
C2763      C2772   1.363       .  A
C2763      C2764   1.380       .  A
C2764      C2765   1.406       .  A
C2764      O2770   1.320       .  A
C2765      C2766   1.404       .  A
C2765      H2774   1.083       .  S
C2766      C2769   1.365       .  A
O2767      C2768   1.331       .  A
C2768      C2769   1.391       .  A
C2769      H2775   1.082       .  S
O2770      C2771   1.332       .  A
C2771      C2772   1.391       .  A
C2772      H2776   1.083       .  S
C2777      C2782   1.380       .  A
C2777      C2778   1.401       .  A
C2777      O2783   1.318       .  A
C2778      C2779   1.401       .  A
C2778      H2789   1.082       .  S
C2779      C2788   1.357       .  A
C2779      C2780   1.376       .  A
C2780      C2781   1.407       .  A
C2780      O2786   1.321       .  A
C2781      C2782   1.407       .  A
C2781      H2790   1.082       .  S
C2782      C2785   1.366       .  A
O2783      C2784   1.330       .  A
C2784      C2785   1.393       .  A
C2785      H2791   1.082       .  S
O2786      C2787   1.335       .  A
C2787      C2788   1.396       .  A
C2788      H2792   1.077       .  S
C2793      C2798   1.379       .  A
C2793      C2794   1.402       .  A
C2793      O2799   1.316       .  A
C2794      C2795   1.401       .  A
C2794      H2805   1.083       .  S
C2795      C2804   1.361       .  A
C2795      C2796   1.380       .  A
C2796      C2797   1.407       .  A
C2796      O2802   1.321       .  A
C2797      C2798   1.405       .  A
C2797      H2806   1.083       .  S
C2798      C2801   1.366       .  A
O2799      C2800   1.331       .  A
C2800      C2801   1.395       .  A
C2801      H2807   1.082       .  S
O2802      C2803   1.333       .  A
C2803      C2804   1.391       .  A
C2804      H2808   1.083       .  S
C2809      C2814   1.380       .  A
C2809      C2810   1.407       .  A
C2809      O2815   1.322       .  A
C2810      C2811   1.406       .  A
C2810      H2821   1.083       .  S
C2811      C2820   1.366       .  A
C2811      C2812   1.380       .  A
C2812      C2813   1.403       .  A
C2812      O2818   1.318       .  A
C2813      C2814   1.402       .  A
C2813      H2822   1.083       .  S
C2814      C2817   1.362       .  A
O2815      C2816   1.333       .  A
C2816      C2817   1.390       .  A
C2817      H2823   1.083       .  S
O2818      C2819   1.330       .  A
C2819      C2820   1.393       .  A
C2820      H2824   1.082       .  S
C2825      C2830   1.379       .  A
C2825      C2826   1.408       .  A
C2825      O2831   1.323       .  A
C2826      C2827   1.408       .  A
C2826      H2837   1.083       .  S
C2827      C2836   1.369       .  A
C2827      C2828   1.380       .  A
C2828      C2829   1.405       .  A
C2828      O2834   1.321       .  A
C2829      C2830   1.404       .  A
C2829      H2838   1.083       .  S
C2830      C2833   1.363       .  A
O2831      C2832   1.333       .  A
C2832      C2833   1.393       .  A
C2833      H2839   1.082       .  S
O2834      C2835   1.332       .  A
C2835      C2836   1.394       .  A
C2836      H2840   1.082       .  S
C2841      C2846   1.380       .  A
C2841      C2842   1.406       .  A
C2841      O2847   1.321       .  A
C2842      C2843   1.405       .  A
C2842      H2853   1.083       .  S
C2843      C2852   1.363       .  A
C2843      C2844   1.380       .  A
C2844      C2845   1.403       .  A
C2844      O2850   1.319       .  A
C2845      C2846   1.402       .  A
C2845      H2854   1.083       .  S
C2846      C2849   1.361       .  A
O2847      C2848   1.332       .  A
C2848      C2849   1.391       .  A
C2849      H2855   1.083       .  S
O2850      C2851   1.330       .  A
C2851      C2852   1.393       .  A
C2852      H2856   1.082       .  S
C2857      C2862   1.380       .  A
C2857      C2858   1.408       .  A
C2857      O2863   1.324       .  A
C2858      C2859   1.408       .  A
C2858      H2869   1.082       .  S
C2859      C2868   1.366       .  A
C2859      C2860   1.379       .  A
C2860      C2861   1.404       .  A
C2860      O2866   1.321       .  A
C2861      C2862   1.405       .  A
C2861      H2870   1.083       .  S
C2862      C2865   1.363       .  A
O2863      C2864   1.334       .  A
C2864      C2865   1.393       .  A
C2865      H2871   1.083   1_554  S
O2866      C2867   1.332       .  A
C2867      C2868   1.396       .  A
C2868      H2872   1.082       .  S
C2873      C2878   1.378       .  A
C2873      C2874   1.406       .  A
C2873      O2879   1.322       .  A
C2874      C2875   1.406       .  A
C2874      H2885   1.082       .  S
C2875      C2884   1.365       .  A
C2875      C2876   1.380       .  A
C2876      C2877   1.406       .  A
C2876      O2882   1.322       .  A
C2877      C2878   1.406       .  A
C2877      H2886   1.082       .  S
C2878      C2881   1.363       .  A
O2879      C2880   1.333       .  A
C2880      C2881   1.396       .  A
C2881      H2887   1.081       .  S
O2882      C2883   1.333       .  A
C2883      C2884   1.393       .  A
C2884      H2888   1.082       .  S
C2889      C2894   1.378       .  A
C2889      C2890   1.405       .  A
C2889      O2895   1.321       .  A
C2890      C2891   1.405       .  A
C2890      H2901   1.082       .  S
C2891      C2900   1.363       .  A
C2891      C2892   1.380       .  A
C2892      C2893   1.407       .  A
C2892      O2898   1.323       .  A
C2893      C2894   1.406       .  A
C2893      H2902   1.083       .  S
C2894      C2897   1.364       .  A
O2895      C2896   1.333       .  A
C2896      C2897   1.397       .  A
C2897      H2903   1.081       .  S
O2898      C2899   1.333       .  A
C2899      C2900   1.392       .  A
C2900      H2904   1.083       .  S
C2905      C2910   1.381       .  A
C2905      C2906   1.402       .  A
C2905      O2911   1.318       .  A
C2906      C2907   1.401       .  A
C2906      H2917   1.083       .  S
C2907      C2916   1.359       .  A
C2907      C2908   1.381       .  A
C2908      C2909   1.402       .  A
C2908      O2914   1.318       .  A
C2909      C2910   1.402       .  A
C2909      H2918   1.083       .  S
C2910      C2913   1.360       .  A
O2911      C2912   1.330       .  A
C2912      C2913   1.391       .  A
C2913      H2919   1.083       .  S
O2914      C2915   1.330       .  A
C2915      C2916   1.389       .  A
C2916      H2920   1.082       .  S
C2921      C2926   1.380       .  A
C2921      C2922   1.407       .  A
C2921      O2927   1.322       .  A
C2922      C2923   1.406       .  A
C2922      H2933   1.083       .  S
C2923      C2932   1.365       .  A
C2923      C2924   1.380       .  A
C2924      C2925   1.403       .  A
C2924      O2930   1.320       .  A
C2925      C2926   1.403       .  A
C2925      H2934   1.083       .  S
C2926      C2929   1.362       .  A
O2927      C2928   1.333       .  A
C2928      C2929   1.391       .  A
C2929      H2935   1.083       .  S
O2930      C2931   1.330       .  A
C2931      C2932   1.394       .  A
C2932      H2936   1.082       .  S
C2937      C2942   1.380       .  A
C2937      C2938   1.405       .  A
C2937      O2943   1.320       .  A
C2938      C2939   1.405       .  A
C2938      H2949   1.083       .  S
C2939      C2948   1.363       .  A
C2939      C2940   1.379       .  A
C2940      C2941   1.404       .  A
C2940      O2946   1.319       .  A
C2941      C2942   1.404       .  A
C2941      H2950   1.083       .  S
C2942      C2945   1.363       .  A
O2943      C2944   1.332       .  A
C2944      C2945   1.392       .  A
C2945      H2951   1.083   1_455  S
O2946      C2947   1.331       .  A
C2947      C2948   1.395       .  A
C2948      H2952   1.082       .  S
C2953      C2958   1.381       .  A
C2953      C2954   1.404       .  A
C2953      O2959   1.322       .  A
C2954      C2955   1.404       .  A
C2954      H2965   1.083       .  S
C2955      C2964   1.362       .  A
C2955      C2956   1.380       .  A
C2956      C2957   1.403       .  A
C2956      O2962   1.320       .  A
C2957      C2958   1.403       .  A
C2957      H2966   1.083       .  S
C2958      C2961   1.360       .  A
O2959      C2960   1.332       .  A
C2960      C2961   1.391       .  A
C2961      H2967   1.083       .  S
O2962      C2963   1.331       .  A
C2963      C2964   1.392       .  A
C2964      H2968   1.082       .  S
C2969      C2974   1.379       .  A
C2969      C2970   1.403       .  A
C2969      O2975   1.318       .  A
C2970      C2971   1.402       .  A
C2970      H2981   1.083       .  S
C2971      C2980   1.362       .  A
C2971      C2972   1.380       .  A
C2972      C2973   1.405       .  A
C2972      O2978   1.320       .  A
C2973      C2974   1.404       .  A
C2973      H2982   1.083       .  S
C2974      C2977   1.364       .  A
O2975      C2976   1.330       .  A
C2976      C2977   1.394       .  A
C2977      H2983   1.082       .  S
O2978      C2979   1.332       .  A
C2979      C2980   1.391       .  A
C2980      H2984   1.083       .  S
C2985      C2990   1.378       .  A
C2985      C2986   1.407       .  A
C2985      O2991   1.321       .  A
C2986      C2987   1.406       .  A
C2986      H2997   1.082       .  S
C2987      C2996   1.366       .  A
C2987      C2988   1.380       .  A
C2988      C2989   1.404       .  A
C2988      O2994   1.319       .  A
C2989      C2990   1.403       .  A
C2989      H2998   1.083       .  S
C2990      C2993   1.362       .  A
O2991      C2992   1.334       .  A
C2992      C2993   1.394       .  A
C2993      H2999   1.081       .  S
O2994      C2995   1.331       .  A
C2995      C2996   1.393       .  A
C2996      H3000   1.082       .  S
C3001      C3006   1.379       .  A
C3001      C3002   1.404       .  A
C3001      O3007   1.320       .  A
C3002      C3003   1.404       .  A
C3002      H3013   1.083       .  S
C3003      C3012   1.363       .  A
C3003      C3004   1.380       .  A
C3004      C3005   1.407       .  A
C3004      O3010   1.322       .  A
C3005      C3006   1.406       .  A
C3005      H3014   1.083       .  S
C3006      C3009   1.364       .  A
O3007      C3008   1.332       .  A
C3008      C3009   1.395       .  A
C3009      H3015   1.082       .  S
O3010      C3011   1.333       .  A
C3011      C3012   1.393       .  A
C3012      H3016   1.083   1_565  S
C3017      C3022   1.376       .  A
C3017      C3018   1.410       .  A
C3017      O3023   1.324       .  A
C3018      C3019   1.409       .  A
C3018      H3029   1.082       .  S
C3019      C3028   1.368       .  A
C3019      C3020   1.380       .  A
C3020      C3021   1.400       .  A
C3020      O3026   1.317       .  A
C3021      C3022   1.400       .  A
C3021      H3030   1.082       .  S
C3022      C3025   1.355       .  A
O3023      C3024   1.337       .  A
C3024      C3025   1.396       .  A
C3025      H3031   1.077       .  S
O3026      C3027   1.329       .  A
C3027      C3028   1.395       .  A
C3028      H3032   1.082       .  S
C3033      C3038   1.380       .  A
C3033      C3034   1.403       .  A
C3033      O3039   1.320       .  A
C3034      C3035   1.403       .  A
C3034      H3045   1.082       .  S
C3035      C3044   1.358       .  A
C3035      C3036   1.377       .  A
C3036      C3037   1.406       .  A
C3036      O3042   1.322       .  A
C3037      C3038   1.406       .  A
C3037      H3046   1.082       .  S
C3038      C3041   1.364       .  A
O3039      C3040   1.331       .  A
C3040      C3041   1.394       .  A
C3041      H3047   1.082       .  S
O3042      C3043   1.335       .  A
C3043      C3044   1.397       .  A
C3044      H3048   1.076       .  S
C3049      C3054   1.380       .  A
C3049      C3050   1.405       .  A
C3049      O3055   1.320       .  A
C3050      C3051   1.404       .  A
C3050      H3061   1.083       .  S
C3051      C3060   1.364       .  A
C3051      C3052   1.380       .  A
C3052      C3053   1.407       .  A
C3052      O3058   1.322       .  A
C3053      C3054   1.406       .  A
C3053      H3062   1.083       .  S
C3054      C3057   1.366       .  A
O3055      C3056   1.331       .  A
C3056      C3057   1.393       .  A
C3057      H3063   1.083       .  S
O3058      C3059   1.333       .  A
C3059      C3060   1.392       .  A
C3060      H3064   1.082       .  S
C3065      C3070   1.381       .  A
C3065      C3066   1.405       .  A
C3065      O3071   1.321       .  A
C3066      C3067   1.405       .  A
C3066      H3077   1.083       .  S
C3067      C3076   1.364       .  A
C3067      C3068   1.380       .  A
C3068      C3069   1.404       .  A
C3068      O3074   1.320       .  A
C3069      C3070   1.403       .  A
C3069      H3078   1.083       .  S
C3070      C3073   1.362       .  A
O3071      C3072   1.331       .  A
C3072      C3073   1.390       .  A
C3073      H3079   1.082       .  S
O3074      C3075   1.331       .  A
C3075      C3076   1.393       .  A
C3076      H3080   1.083       .  S
C3081      C3086   1.380       .  A
C3081      C3082   1.405       .  A
C3081      O3087   1.321       .  A
C3082      C3083   1.404       .  A
C3082      H3093   1.083       .  S
C3083      C3092   1.363       .  A
C3083      C3084   1.380       .  A
C3084      C3085   1.407       .  A
C3084      O3090   1.323       .  A
C3085      C3086   1.406       .  A
C3085      H3094   1.083       .  S
C3086      C3089   1.365       .  A
O3087      C3088   1.331       .  A
C3088      C3089   1.393       .  A
C3089      H3095   1.082       .  S
O3090      C3091   1.333       .  A
C3091      C3092   1.392       .  A
C3092      H3096   1.083       .  S
C3097      C3102   1.380       .  A
C3097      C3098   1.405       .  A
C3097      O3103   1.322       .  A
C3098      C3099   1.405       .  A
C3098      H3109   1.083       .  S
C3099      C3108   1.362       .  A
C3099      C3100   1.381       .  A
C3100      C3101   1.405       .  A
C3100      O3106   1.322       .  A
C3101      C3102   1.405       .  A
C3101      H3110   1.083       .  S
C3102      C3105   1.363       .  A
O3103      C3104   1.333       .  A
C3104      C3105   1.392       .  A
C3105      H3111   1.083       .  S
O3106      C3107   1.331       .  A
C3107      C3108   1.392       .  A
C3108      H3112   1.083       .  S
C3113      C3118   1.380       .  A
C3113      C3114   1.405       .  A
C3113      O3119   1.319       .  A
C3114      C3115   1.404       .  A
C3114      H3125   1.083       .  S
C3115      C3124   1.365       .  A
C3115      C3116   1.380       .  A
C3116      C3117   1.405       .  A
C3116      O3122   1.319       .  A
C3117      C3118   1.403       .  A
C3117      H3126   1.083       .  S
C3118      C3121   1.364       .  A
O3119      C3120   1.331       .  A
C3120      C3121   1.390       .  A
C3121      H3127   1.082       .  S
O3122      C3123   1.331       .  A
C3123      C3124   1.392       .  A
C3124      H3128   1.083       .  S
C3129      C3134   1.380       .  A
C3129      C3130   1.405       .  A
C3129      O3135   1.322       .  A
C3130      C3131   1.405       .  A
C3130      H3141   1.083       .  S
C3131      C3140   1.363       .  A
C3131      C3132   1.381       .  A
C3132      C3133   1.403       .  A
C3132      O3138   1.320       .  A
C3133      C3134   1.403       .  A
C3133      H3142   1.083       .  S
C3134      C3137   1.361       .  A
O3135      C3136   1.332       .  A
C3136      C3137   1.392       .  A
C3137      H3143   1.083       .  S
O3138      C3139   1.330       .  A
C3139      C3140   1.391       .  A
C3140      H3144   1.082       .  S
C3145      C3150   1.379       .  A
C3145      C3146   1.405       .  A
C3145      O3151   1.321       .  A
C3146      C3147   1.405       .  A
C3146      H3157   1.083       .  S
C3147      C3156   1.363       .  A
C3147      C3148   1.380       .  A
C3148      C3149   1.406       .  A
C3148      O3154   1.323       .  A
C3149      C3150   1.406       .  A
C3149      H3158   1.083       .  S
C3150      C3153   1.364       .  A
O3151      C3152   1.333       .  A
C3152      C3153   1.394       .  A
C3153      H3159   1.082       .  S
O3154      C3155   1.333       .  A
C3155      C3156   1.393       .  A
C3156      H3160   1.083   1_554  S
C3161      C3166   1.379       .  A
C3161      C3162   1.406       .  A
C3161      O3167   1.322       .  A
C3162      C3163   1.406       .  A
C3162      H3173   1.083       .  S
C3163      C3172   1.365       .  A
C3163      C3164   1.380       .  A
C3164      C3165   1.404       .  A
C3164      O3170   1.321       .  A
C3165      C3166   1.404       .  A
C3165      H3174   1.083       .  S
C3166      C3169   1.362       .  A
O3167      C3168   1.333       .  A
C3168      C3169   1.394       .  A
C3169      H3175   1.082       .  S
O3170      C3171   1.332       .  A
C3171      C3172   1.394       .  A
C3172      H3176   1.083       .  S
C3177      C3182   1.380       .  A
C3177      C3178   1.404       .  A
C3177      O3183   1.320       .  A
C3178      C3179   1.403       .  A
C3178      H3189   1.082       .  S
C3179      C3188   1.360       .  A
C3179      C3180   1.377       .  A
C3180      C3181   1.407       .  A
C3180      O3186   1.322       .  A
C3181      C3182   1.406       .  A
C3181      H3190   1.082       .  S
C3182      C3185   1.365       .  A
O3183      C3184   1.331       .  A
C3184      C3185   1.394       .  A
C3185      H3191   1.082       .  S
O3186      C3187   1.334       .  A
C3187      C3188   1.396       .  A
C3188      H3192   1.078       .  S
