geometry optimzed in LAMMPS
_audit_creation_date              2020-11-30 
_audit_creation_method            'lammps2cif' 
_symmetry_space_group_name_H-M    'P1' 
_symmetry_Int_Tables_number       1 
_symmetry_cell_setting            triclinic 
loop_ 
_symmetry_equiv_pos_as_xyz 
  x,y,z 
_cell_length_a                    36.30341674 
_cell_length_b                    36.649298644006116 
_cell_length_c                    36.4620073904388 
_cell_angle_alpha                 88.74325301794619 
_cell_angle_beta                  92.65072069521875 
_cell_angle_gamma                 90.52584967256921 
loop_ 
_atom_site_label 
_atom_site_type_symbol 
_atom_site_fract_x 
_atom_site_fract_y 
_atom_site_fract_z 
_atom_site_charge 
N1          N  0.78060793  0.49161375  0.74035404    -0.36200
N2          N  0.83181091  0.50044101  0.68137982    -0.56700
N3          N  0.89460127  0.50197620  0.73304684    -0.36200
N4          N  0.84284797  0.49515571  0.79162503    -0.56700
C5          C  0.75732747  0.50151455  0.71199288     0.27400
C6          C  0.76359459  0.49834025  0.77175849     0.27400
C7          C  0.91061786  0.51426541  0.70236780     0.27400
C8          C  0.91634167  0.51215346  0.76221152     0.27400
C9          C  0.80025841  0.49315771  0.66166640     0.36000
C10         C  0.85945784  0.49815131  0.65794888     0.36000
C11         C  0.81639809  0.48413274  0.81431133     0.36000
C12         C  0.87526888  0.48894392  0.81003369     0.36000
C13         C  0.72460047  0.51372625  0.72549024    -0.21400
C14         C  0.72866909  0.51191163  0.76329925    -0.21400
C15         C  0.94362821  0.53167656  0.71204685    -0.21400
C16         C  0.94717290  0.53047155  0.74999331    -0.21400
C17         C  0.80795665  0.48601538  0.62563067    -0.22500
C18         C  0.84544441  0.48885019  0.62336316    -0.22500
C19         C  0.83191899  0.47025824  0.84701262    -0.22500
C20         C  0.86931776  0.47299982  0.84421220    -0.22500
C21         C  0.76452931  0.49812140  0.67441848    -0.17800
C22         C  0.77870545  0.49112768  0.80759465    -0.17800
C23         C  0.90928838  0.50357285  0.79921092    -0.17800
C24         C  0.89637966  0.50892421  0.66609762    -0.17800
H25         H  0.70029625  0.52297861  0.70980304     0.15100
H26         H  0.70822388  0.51953927  0.78234621     0.15100
H27         H  0.96298281  0.54408508  0.69371668     0.15100
H28         H  0.96987857  0.54156407  0.76663411     0.15100
H29         H  0.78857447  0.48063220  0.60293125     0.13300
H30         H  0.86048325  0.48599306  0.59865074     0.13300
H31         H  0.81774204  0.46035910  0.87078498     0.13300
H32         H  0.88976970  0.46570890  0.86559868     0.13300
H33         H  0.80533793  0.47784291  0.73824795     0.26600
H34         H  0.87180195  0.48463721  0.73393894     0.26600
N35         N  0.55836356  0.78997266  0.72243568    -0.36200
N36         N  0.55122778  0.84412425  0.77838245    -0.56700
N37         N  0.55345717  0.78594766  0.83653683    -0.36200
N38         N  0.55593213  0.73192262  0.78015511    -0.56700
C39         C  0.55102865  0.81954156  0.70030535     0.27400
C40         C  0.55465122  0.75990588  0.70161180     0.27400
C41         C  0.54650318  0.81538749  0.85693939     0.27400
C42         C  0.54615329  0.75525490  0.85685777     0.27400
C43         C  0.55145220  0.86705238  0.74856859     0.36000
C44         C  0.55130267  0.86536919  0.80834502     0.36000
C45         C  0.56535285  0.71222899  0.75121052     0.36000
C46         C  0.56087551  0.70979840  0.81014548     0.36000
C47         C  0.54372198  0.80808015  0.66468707    -0.21400
C48         C  0.54588841  0.77050340  0.66552915    -0.21400
C49         C  0.53573763  0.80310943  0.89121277    -0.21400
C50         C  0.53473832  0.76545147  0.89081407    -0.21400
C51         C  0.55088404  0.90289420  0.75962054    -0.22500
C52         C  0.55034315  0.90187517  0.79712113    -0.22500
C53         C  0.57644782  0.67760179  0.76288711    -0.22500
C54         C  0.57392458  0.67617257  0.80015864    -0.22500
C55         C  0.55066130  0.85655381  0.71124921    -0.17800
C56         C  0.56031960  0.72329766  0.71400569    -0.17800
C57         C  0.55122192  0.71841946  0.84607948    -0.17800
C58         C  0.54991454  0.85292143  0.84566571    -0.17800
H59         H  0.53706072  0.82499349  0.64062673     0.15100
H60         H  0.54154288  0.75298822  0.64217842     0.15100
H61         H  0.52889196  0.81933778  0.91429686     0.15100
H62         H  0.52697511  0.74764577  0.91327527     0.15100
H63         H  0.55025845  0.92737697  0.74246648     0.13300
H64         H  0.54859434  0.92565192  0.81397113     0.13300
H65         H  0.58498174  0.65539542  0.74622318     0.13300
H66         H  0.58057595  0.65279370  0.81779375     0.13300
H67         H  0.56827620  0.79018755  0.74953386     0.26600
H68         H  0.56569580  0.78713036  0.81142528     0.26600
N69         N  0.79737899  0.77506661  0.45785471    -0.36200
N70         N  0.74460738  0.83177559  0.44646974    -0.56700
N71         N  0.80131921  0.88887910  0.45140415    -0.36200
N72         N  0.85479700  0.83069365  0.46413023    -0.56700
C73         C  0.76603442  0.75650488  0.46490852     0.27400
C74         C  0.82573503  0.75613358  0.47385379     0.27400
C75         C  0.77078459  0.90795587  0.45877242     0.27400
C76         C  0.83131048  0.90773314  0.46442576     0.27400
C77         C  0.72270357  0.80265424  0.43882381     0.36000
C78         C  0.72491702  0.86173750  0.43671961     0.36000
C79         C  0.87493397  0.80035913  0.45990460     0.36000
C80         C  0.87691408  0.85925143  0.45592119     0.36000
C81         C  0.77460294  0.72516838  0.48544608    -0.21400
C82         C  0.81241957  0.72487856  0.49099632    -0.21400
C83         C  0.78160123  0.94008056  0.47579003    -0.21400
C84         C  0.81988398  0.94011735  0.47898252    -0.21400
C85         C  0.68925117  0.81405064  0.42298692    -0.22500
C86         C  0.69055995  0.85151557  0.42182713    -0.22500
C87         C  0.90956940  0.80955018  0.44809129    -0.22500
C88         C  0.91101673  0.84690693  0.44599043    -0.22500
C89         C  0.73022705  0.76693043  0.45217991    -0.17800
C90         C  0.86333143  0.76490012  0.47001537    -0.17800
C91         C  0.86838221  0.89599795  0.46244751    -0.17800
C92         C  0.73379612  0.89690629  0.44971445    -0.17800
H93         H  0.75566963  0.70456396  0.49522695     0.15100
H94         H  0.82835151  0.70390885  0.50563250     0.15100
H95         H  0.76380319  0.96129726  0.48483888     0.15100
H96         H  0.83723906  0.96118455  0.49117940     0.15100
H97         H  0.66554321  0.79723981  0.41545626     0.13300
H98         H  0.66790102  0.86926775  0.41342388     0.13300
H99         H  0.93185620  0.79132518  0.44263443     0.13300
H100        H  0.93483281  0.86305450  0.43885814     0.13300
H101        H  0.79981667  0.79716969  0.43966082     0.26600
H102        H  0.80191647  0.86520841  0.43616242     0.26600
O103        O  0.58172858  0.58038063  0.95664166    -0.80400
O104        O  0.63899338  0.42837885  0.98945101    -0.65100
O105        O  0.60421686  0.51324142  0.93912823    -1.11700
C106        C  0.48702695  0.47497316  0.97950631     1.06400
O107        O  0.59069407  0.39306520  0.97613859    -0.78300
O108        O  0.53407242  0.42174479  0.93517929    -0.65900
Ni109      Ni  0.62815455  0.55843754  0.94783180     1.34900
C110        C  0.53663861  0.44290430  0.90738115     0.85200
O111        O  0.66870086  0.47634695  0.94288999    -0.78900
O112        O  0.67513751  0.53753321  0.93641685    -0.89200
C113        C  0.62477486  0.39713805  0.98512386     0.84800
O114        O  0.63725533  0.55409836  0.00015721    -0.67400
O115        O  0.50390515  0.44837988  0.99574603    -0.86600
C116        C  0.64214232  0.52635424  0.02113789     0.85600
C117        C  0.68506142  0.50472129  0.93039474     1.07200
H118        H  0.57441806  0.47834232  0.00764482     0.39000
O119        O  0.57355661  0.46920270  0.98296253    -1.09300
O120        O  0.54629899  0.47661457  0.90923038    -0.66000
Ni121      Ni  0.55418472  0.50815760  0.95133367     1.26300
O122        O  0.63964265  0.49428058  0.00901007    -0.66200
O123        O  0.50328601  0.50064603  0.96223386    -0.78500
C124        C  0.55654533  0.58162951  0.93119017     0.85000
O125        O  0.54057038  0.55157592  0.92183787    -0.65700
Ni126      Ni  0.54847591  0.42352400  0.98571609     1.27400
Ni127      Ni  0.62211705  0.47146380  0.96463067     1.26100
H128        H  0.60579388  0.50901739  0.91317986     0.39500
O129        O  0.62922988  0.52246445  0.46420336    -0.80400
O130        O  0.56943063  0.57870034  0.60873638    -0.65100
O131        O  0.57470341  0.54052100  0.51190436    -1.11700
C132        C  0.61484321  0.66349136  0.48802866     1.06400
O133        O  0.53594995  0.62057655  0.58059462    -0.78300
O134        O  0.53068321  0.64678471  0.51247120    -0.65900
Ni135      Ni  0.60220876  0.49837910  0.50230609     1.34900
C136        C  0.51811800  0.62223760  0.49139847     0.85200
O137        O  0.55667021  0.51038612  0.58053211    -0.78900
O138        O  0.57684625  0.47097961  0.53905148    -0.89200
C139        C  0.55100284  0.60798457  0.60994331     0.84800
O140        O  0.64314523  0.50543337  0.53657596    -0.67400
O141        O  0.60142224  0.67106939  0.51870633    -0.86600
C142        C  0.64692634  0.52368157  0.56575011     0.85600
C143        C  0.56152248  0.47802652  0.56890404     1.07200
H144        H  0.61680295  0.60442673  0.54731637     0.39000
O145        O  0.59118799  0.60148218  0.53944202    -1.09300
O146        O  0.53839010  0.59704345  0.47987293    -0.66000
Ni147      Ni  0.59053983  0.58606135  0.49043746     1.26300
O148        O  0.62236049  0.54472171  0.57667824    -0.66200
O149        O  0.60835562  0.63312489  0.47171243    -0.78500
C150        C  0.61619915  0.54168931  0.43717170     0.85000
O151        O  0.59277715  0.56651110  0.44231636    -0.65700
Ni152      Ni  0.56861849  0.64590959  0.54972916     1.27400
Ni153      Ni  0.57287899  0.55704572  0.56107007     1.26100
H154        H  0.54965776  0.53535172  0.50330372     0.39500
O155        O  0.41070792  0.01422434  0.53701506    -0.80400
O156        O  0.56589547  0.95659687  0.48046743    -0.65100
O157        O  0.47862440  0.97766340  0.53200286    -1.11700
C158        C  0.54456897  0.07881493  0.58032175     1.06400
O159        O  0.60710117  0.98198861  0.52011482    -0.78300
O160        O  0.57338026  0.98103010  0.58344622    -0.65900
Ni161      Ni  0.43268199  0.98040669  0.50430972     1.34900
C162        C  0.54436802  0.97616286  0.60114653     0.85200
O163        O  0.50023734  0.92055634  0.49103834    -0.78900
O164        O  0.44723601  0.94463832  0.47018074    -0.89200
C165        C  0.59889777  0.96155205  0.49331916     0.84800
O166        O  0.45118527  0.01850602  0.47337513    -0.67400
O167        O  0.57212914  0.05773809  0.58001851    -0.86600
C168        C  0.47479075  0.01147915  0.44974208     0.85600
C169        C  0.46779572  0.91716696  0.47621667     1.07200
H170        H  0.53808749  0.03223580  0.50160895     0.39000
O171        O  0.53833111  0.01471850  0.52181522    -1.09300
O172        O  0.51567502  0.99569034  0.59446546    -0.66000
Ni173      Ni  0.49646847  0.02280287  0.55072243     1.26300
O174        O  0.50201899  0.99011725  0.45792127    -0.66200
O175        O  0.51333067  0.06922989  0.56700947    -0.78500
C176        C  0.42100754  0.02764171  0.56779423     0.85000
O177        O  0.45451250  0.03003176  0.57848375    -0.65700
Ni178      Ni  0.58541210  0.01831405  0.54862576     1.27400
Ni179      Ni  0.52101441  0.96753614  0.50478886     1.26100
H180        H  0.47645356  0.95954261  0.55132552     0.39500
N181        N  0.53483761  0.27974533  0.77927141    -0.36200
N182        N  0.53055713  0.33499699  0.72098965    -0.56700
N183        N  0.53550180  0.28004820  0.66537233    -0.36200
N184        N  0.54263125  0.22454460  0.72493415    -0.56700
C185        C  0.53935519  0.31044584  0.79900327     0.27400
C186        C  0.54453724  0.25110924  0.80162838     0.27400
C187        C  0.54302331  0.31085706  0.64561263     0.27400
C188        C  0.54816146  0.25128407  0.64710977     0.27400
C189        C  0.52127029  0.35525835  0.74953416     0.36000
C190        C  0.52139461  0.35479943  0.69038506     0.36000
C191        C  0.53927600  0.20243243  0.75494163     0.36000
C192        C  0.53997273  0.20277395  0.69541295     0.36000
C193        C  0.55164082  0.30125684  0.83453270    -0.21400
C194        C  0.55448838  0.26384795  0.83633902    -0.21400
C195        C  0.56034846  0.30140886  0.61411160    -0.21400
C196        C  0.56313587  0.26377294  0.61482180    -0.21400
C197        C  0.50570075  0.38786853  0.73714580    -0.22500
C198        C  0.50552538  0.38748083  0.69957492    -0.22500
C199        C  0.53520809  0.16649298  0.74436373    -0.22500
C200        C  0.53497970  0.16676131  0.70683730    -0.22500
C201        C  0.53000476  0.34617792  0.78654233    -0.17800
C202        C  0.54252748  0.21381405  0.79188453    -0.17800
C203        C  0.54565964  0.21410120  0.65860344    -0.17800
C204        C  0.53366572  0.34691487  0.65529646    -0.17800
H205        H  0.55718372  0.31951558  0.85710299     0.15100
H206        H  0.56256767  0.24808727  0.86075194     0.15100
H207        H  0.56999472  0.31965489  0.59282286     0.15100
H208        H  0.57536205  0.24749228  0.59424271     0.15100
H209        H  0.49643444  0.41001040  0.75349125     0.13300
H210        H  0.49646279  0.40949112  0.68112650     0.13300
H211        H  0.53322775  0.14231338  0.76170462     0.13300
H212        H  0.53238642  0.14283155  0.69001998     0.13300
H213        H  0.52183503  0.27810182  0.75339220     0.26600
H214        H  0.51982911  0.27830642  0.68853070     0.26600
O215        O  0.51122801  0.97525572  0.96649952    -0.80400
O216        O  0.45495728  0.12695003  0.99292033    -0.65100
O217        O  0.48649142  0.04207152  0.94813883    -1.11700
C218        C  0.60571230  0.08049472  0.99357473     1.06400
O219        O  0.50301718  0.16082352  0.97795788    -0.78300
O220        O  0.56006779  0.13314506  0.94400820    -0.65900
Ni221      Ni  0.46354867  0.99687665  0.95848731     1.34900
C222        C  0.55134613  0.11398065  0.91627780     0.85200
O223        O  0.42241337  0.07878276  0.94701423    -0.78900
O224        O  0.41511470  0.01766999  0.94685259    -0.89200
C225        C  0.46917655  0.15749534  0.98514946     0.84800
O226        O  0.46018292  0.00117488  0.01105491    -0.67400
O227        O  0.58901047  0.10576582  0.00935858    -0.86600
C228        C  0.45444036  0.02916878  0.02986544     0.85600
C229        C  0.40513225  0.05004204  0.93647055     1.07200
H230        H  0.51987363  0.07619376  0.01639113     0.39000
O231        O  0.51944142  0.08585735  0.99150461    -1.09300
O232        O  0.54008194  0.08088332  0.91877051    -0.66000
Ni233      Ni  0.53736703  0.04830838  0.96140094     1.26300
O234        O  0.45397250  0.06088343  0.01534302    -0.66200
O235        O  0.58921733  0.05691345  0.97323561    -0.78500
C236        C  0.53380461  0.97648204  0.94074011     0.85000
O237        O  0.54962950  0.00684374  0.93283079    -0.65700
Ni238      Ni  0.54506868  0.13117783  0.99354616     1.27400
Ni239      Ni  0.46997964  0.08367223  0.97096773     1.26100
H240        H  0.48300812  0.04602593  0.92191439     0.39500
N241        N  0.80192293  0.27561669  0.01010441    -0.36200
N242        N  0.74853768  0.21726419  0.99682638    -0.56700
N243        N  0.80800279  0.16302550  0.00314775    -0.36200
N244        N  0.88996037  0.22349051  0.00925358    -0.56700
C245        C  0.77206256  0.29546762  0.99918774     0.27400
C246        C  0.83230526  0.29697863  0.00676429     0.27400
C247        C  0.77950034  0.14128856  0.99282629     0.27400
C248        C  0.83958509  0.14492164  0.99796021     0.27400
C249        C  0.72513993  0.24534234  0.00113497     0.36000
C250        C  0.72846483  0.18610061  0.99971918     0.36000
C251        C  0.87596098  0.25022020  0.02905495     0.36000
C252        C  0.87931929  0.19192829  0.02539456     0.36000
C253        C  0.78355989  0.33037321  0.98913502    -0.21400
C254        C  0.82159126  0.33127710  0.99375878    -0.21400
C255        C  0.79306538  0.10851877  0.98080564    -0.21400
C256        C  0.83118030  0.11128031  0.98302322    -0.21400
C257        C  0.68987414  0.23194091  0.00604046    -0.22500
C258        C  0.69188910  0.19462144  0.00491814    -0.22500
C259        C  0.85900192  0.23587493  0.05943222    -0.22500
C260        C  0.86122484  0.19865494  0.05715568    -0.22500
C261        C  0.73482908  0.28298675  0.99926267    -0.17800
C262        C  0.86916058  0.28485780  0.01359026    -0.17800
C263        C  0.87514344  0.15977399  0.00549468    -0.17800
C264        C  0.74188609  0.15006296  0.99566485    -0.17800
H265        H  0.76638537  0.35278344  0.97914548     0.15100
H266        H  0.83917847  0.35456029  0.98825111     0.15100
H267        H  0.77720925  0.08532008  0.97086978     0.15100
H268        H  0.85028061  0.09075577  0.97503753     0.15100
H269        H  0.66516819  0.24736085  0.01007744     0.13300
H270        H  0.66881388  0.17598637  0.00745681     0.13300
H271        H  0.84311422  0.25060924  0.07859240     0.13300
H272        H  0.84717851  0.17882863  0.07409344     0.13300
H273        H  0.80157064  0.24898185  0.02016377     0.26600
H274        H  0.80601824  0.18885981  0.01380677     0.26600
N275        N  0.30239632  0.06703998  0.74036283    -0.36200
N276        N  0.24949699  0.06867623  0.67763777    -0.56700
N277        N  0.18772610  0.06183081  0.72401014    -0.36200
N278        N  0.24103623  0.05838085  0.78678401    -0.56700
C279        C  0.32462619  0.05876123  0.71305772     0.27400
C280        C  0.32008829  0.05729343  0.77252058     0.27400
C281        C  0.17104366  0.05457631  0.69103021     0.27400
C282        C  0.16664412  0.04701630  0.75015089     0.27400
C283        C  0.28122695  0.07538364  0.66073167     0.36000
C284        C  0.22185069  0.07567885  0.65247124     0.36000
C285        C  0.26789568  0.06606980  0.81243033     0.36000
C286        C  0.20885845  0.06120994  0.80350151     0.36000
C287        C  0.35737523  0.04449764  0.72809320    -0.21400
C288        C  0.35464304  0.04393539  0.76574186    -0.21400
C289        C  0.13829435  0.03576353  0.69627431    -0.21400
C290        C  0.13553585  0.03094862  0.73374693    -0.21400
C291        C  0.27374376  0.08740764  0.62487740    -0.22500
C292        C  0.23609276  0.08782941  0.61970364    -0.22500
C293        C  0.25277357  0.07418052  0.84542847    -0.22500
C294        C  0.21533740  0.07130084  0.83974090    -0.22500
C295        C  0.31635988  0.06486795  0.67512856    -0.17800
C296        C  0.30576438  0.06119849  0.80760512    -0.17800
C297        C  0.17443977  0.04931121  0.78830497    -0.17800
C298        C  0.18480959  0.06493847  0.65661700    -0.17800
H299        H  0.38086213  0.03559663  0.71349525     0.15100
H300        H  0.37549093  0.03436922  0.78576183     0.15100
H301        H  0.11862696  0.02626450  0.67531880     0.15100
H302        H  0.11327299  0.01719913  0.74734149     0.15100
H303        H  0.29340944  0.09356143  0.60414156     0.13300
H304        H  0.22097888  0.09425398  0.59412315     0.13300
H305        H  0.26720051  0.08029752  0.87123078     0.13300
H306        H  0.19524471  0.07482616  0.86037280     0.13300
H307        H  0.27780360  0.08138106  0.73744477     0.26600
H308        H  0.21067045  0.07862707  0.72858005     0.26600
N309        N  0.08577694  0.76593397  0.23490015    -0.36200
N310        N  0.06637076  0.82238853  0.18033617    -0.56700
N311        N  0.06294435  0.77081709  0.12249714    -0.36200
N312        N  0.08091329  0.71380079  0.17733451    -0.56700
C313        C  0.07442231  0.79345911  0.25549009     0.27400
C314        C  0.08083272  0.73470871  0.25439039     0.27400
C315        C  0.04604674  0.79968901  0.10534000     0.27400
C316        C  0.05398467  0.74087213  0.10309094     0.27400
C317        C  0.07969176  0.84201512  0.20878458     0.36000
C318        C  0.06679376  0.84491000  0.15074111     0.36000
C319        C  0.09308788  0.69170229  0.20548432     0.36000
C320        C  0.08268222  0.69432849  0.14647908     0.36000
C321        C  0.06230609  0.77979101  0.28857203    -0.21400
C322        C  0.06635368  0.74252934  0.28789761    -0.21400
C323        C  0.02663188  0.78814294  0.07408663    -0.21400
C324        C  0.03174597  0.75091598  0.07255702    -0.21400
C325        C  0.08934274  0.87692698  0.19734070    -0.22500
C326        C  0.08144095  0.87871101  0.16028429    -0.22500
C327        C  0.10317036  0.65825075  0.19261258    -0.22500
C328        C  0.09634252  0.65971715  0.15537225    -0.22500
C329        C  0.07663233  0.83058637  0.24532472    -0.17800
C330        C  0.09008764  0.69960793  0.24285566    -0.17800
C331        C  0.06685963  0.70521540  0.11164554    -0.17800
C332        C  0.05015764  0.83626421  0.11640461    -0.17800
H333        H  0.05173113  0.79505010  0.31082902     0.15100
H334        H  0.05928229  0.72340864  0.30954774     0.15100
H335        H  0.01083590  0.80482666  0.05431370     0.15100
H336        H  0.02053559  0.73336277  0.05125264     0.15100
H337        H  0.09962776  0.89908174  0.21420705     0.13300
H338        H  0.08503878  0.90250146  0.14267803     0.13300
H339        H  0.11267417  0.63463937  0.20858019     0.13300
H340        H  0.09949836  0.63697049  0.13747761     0.13300
H341        H  0.09939903  0.76877247  0.21044025     0.26600
H342        H  0.08268169  0.77189629  0.14405522     0.26600
N343        N  0.29963563  0.78757097  0.45867353    -0.36200
N344        N  0.24552197  0.73009608  0.46738399    -0.56700
N345        N  0.30251745  0.67388313  0.46168550    -0.36200
N346        N  0.35663897  0.73193176  0.45598658    -0.56700
C347        C  0.27027732  0.80744944  0.46800785     0.27400
C348        C  0.33037807  0.80824973  0.46454076     0.27400
C349        C  0.27414529  0.65358875  0.47413526     0.27400
C350        C  0.33403314  0.65487319  0.46887043     0.27400
C351        C  0.22267656  0.75880291  0.46092960     0.36000
C352        C  0.22449478  0.69972871  0.46299115     0.36000
C353        C  0.37688581  0.76211142  0.44868284     0.36000
C354        C  0.37796954  0.70306387  0.44905305     0.36000
C355        C  0.28238178  0.84156745  0.47920878    -0.21400
C356        C  0.32032425  0.84200466  0.47726850    -0.21400
C357        C  0.28758696  0.62076345  0.48858465    -0.21400
C358        C  0.32541893  0.62162149  0.48538122    -0.21400
C359        C  0.18714375  0.74666574  0.45248551    -0.22500
C360        C  0.18831027  0.70933840  0.45350813    -0.22500
C361        C  0.41094956  0.75248282  0.43648443    -0.22500
C362        C  0.41172431  0.71516452  0.43683898    -0.22500
C363        C  0.23285672  0.79584011  0.46502610    -0.17800
C364        C  0.36691992  0.79801218  0.45694122    -0.17800
C365        C  0.37002626  0.66663514  0.45990023    -0.17800
C366        C  0.23641406  0.66357426  0.47111080    -0.17800
H367        H  0.26563752  0.86377708  0.48792829     0.15100
H368        H  0.33840282  0.86474958  0.48409127     0.15100
H369        H  0.27178211  0.59855932  0.50025428     0.15100
H370        H  0.34437374  0.60016505  0.49407757     0.15100
H371        H  0.16282288  0.76299225  0.44648160     0.13300
H372        H  0.16492073  0.69133865  0.44839999     0.13300
H373        H  0.43346100  0.77046594  0.42937114     0.13300
H374        H  0.43521221  0.69901222  0.43031240     0.13300
H375        H  0.29837823  0.76271039  0.44549854     0.26600
H376        H  0.29994099  0.69802099  0.44629394     0.26600
N377        N  0.81798177  0.51852886  0.24639637    -0.36200
N378        N  0.76125128  0.52628427  0.29795406    -0.56700
N379        N  0.70561609  0.53971311  0.23799842    -0.36200
N380        N  0.76303653  0.52909155  0.18726872    -0.56700
C381        C  0.83552693  0.50582558  0.27749013     0.27400
C382        C  0.83606353  0.50603513  0.21767969     0.27400
C383        C  0.68410022  0.53240839  0.26656632     0.27400
C384        C  0.68544624  0.53318370  0.20655987     0.27400
C385        C  0.79153139  0.52889641  0.32092517     0.36000
C386        C  0.73289561  0.53978664  0.31601607     0.36000
C387        C  0.79466206  0.53384516  0.16972744     0.36000
C388        C  0.73618500  0.54401857  0.16513511     0.36000
C389        C  0.86545885  0.48509945  0.26860950    -0.21400
C390        C  0.86555929  0.48485791  0.23071173    -0.21400
C391        C  0.64933340  0.52173470  0.25318825    -0.21400
C392        C  0.65018836  0.52225382  0.21518569    -0.21400
C393        C  0.78247572  0.54428983  0.35361450    -0.22500
C394        C  0.74532270  0.55116934  0.35053725    -0.22500
C395        C  0.78813844  0.55290379  0.13688140    -0.22500
C396        C  0.75092194  0.55872854  0.13360122    -0.22500
C397        C  0.82667773  0.51545604  0.31332183    -0.17800
C398        C  0.82786564  0.51626130  0.18052505    -0.17800
C399        C  0.69836646  0.53896928  0.17075761    -0.17800
C400        C  0.69530447  0.53675492  0.30402259    -0.17800
H401        H  0.88528401  0.47187779  0.28747148     0.15100
H402        H  0.88556431  0.47137869  0.21469895     0.15100
H403        H  0.62583068  0.51444956  0.26910952     0.15100
H404        H  0.62748088  0.51560829  0.19615791     0.15100
H405        H  0.80056698  0.54939100  0.37741229     0.13300
H406        H  0.72904737  0.56236523  0.37167856     0.13300
H407        H  0.80786565  0.56017839  0.11653293     0.13300
H408        H  0.73651345  0.57147455  0.11016536     0.13300
H409        H  0.79775651  0.53851980  0.24497883     0.26600
H410        H  0.73177313  0.55161915  0.23993589     0.26600
O411        O  0.00418409  0.65561010  0.47367407    -0.80400
O412        O  0.06640240  0.51262130  0.40747277    -0.65100
O413        O  0.01134914  0.59651599  0.42797879    -1.11700
C414        C  0.97127476  0.52502837  0.52990358     1.06400
O415        O  0.02157792  0.47369314  0.42202096    -0.78300
O416        O  0.95657258  0.49489336  0.44375400    -0.65900
Ni417      Ni  0.03496965  0.64236555  0.43401579     1.34900
C418        C  0.94200524  0.52332143  0.42903074     0.85200
O419        O  0.05381895  0.57744548  0.37192498    -0.78900
O420        O  0.06509113  0.63418736  0.39263234    -0.89200
C421        C  0.05063688  0.48170410  0.40541241     0.84800
O422        O  0.07291756  0.62451332  0.46796194    -0.67400
O423        O  0.98610716  0.49742221  0.51617834    -0.86600
C424        C  0.09552144  0.59961562  0.46083054     0.85600
C425        C  0.06520632  0.61032038  0.36749673     1.07200
H426        H  0.04351909  0.53938222  0.48267994     0.39000
O427        O  0.02374466  0.53704820  0.46421578    -1.09300
O428        O  0.95276139  0.55529954  0.43726236    -0.66000
Ni429      Ni  0.98998785  0.57586666  0.47000453     1.26300
O430        O  0.08620443  0.57306579  0.44032983    -0.66200
O431        O  0.96864393  0.55562738  0.51294111    -0.78500
C432        C  0.96975088  0.64841381  0.47407175     0.85000
O433        O  0.95812373  0.61586152  0.47271598    -0.65700
Ni434      Ni  0.00425558  0.48816298  0.46841877     1.27400
Ni435      Ni  0.04010366  0.55566836  0.41777315     1.26100
H436        H  0.99218860  0.60003129  0.40794100     0.39500
O437        O  0.07788473  0.01341301  0.52304397    -0.80400
O438        O  0.05579858  0.93479025  0.38086640    -0.65100
O439        O  0.09959319  0.98284167  0.46127329    -1.11700
C440        C  0.05801012  0.09266926  0.40190078     1.06400
O441        O  0.06216617  0.97701123  0.33700171    -0.78300
O442        O  0.10994768  0.02830161  0.35992951    -0.65900
Ni443      Ni  0.08953298  0.96487320  0.50926674     1.34900
C444        C  0.13495751  0.03294304  0.38497668     0.85200
O445        O  0.10135426  0.91408099  0.43557417    -0.78900
O446        O  0.10478563  0.91582817  0.49724065    -0.89200
C447        C  0.05836063  0.94411659  0.34779455     0.84800
O448        O  0.03706879  0.95504974  0.50238373    -0.67400
O449        O  0.05231011  0.07363395  0.37344907    -0.86600
C450        C  0.01770752  0.94756218  0.47355203     0.85600
C451        C  0.11326460  0.90161653  0.46689684     1.07200
H452        H  0.03074333  0.00627050  0.41488119     0.39000
O453        O  0.05631846  0.00601580  0.40868177    -1.09300
O454        O  0.12863579  0.03611371  0.41906785    -0.66000
Ni455      Ni  0.08425440  0.03086038  0.44723282     1.26300
O456        O  0.03198463  0.94531472  0.44273315    -0.66200
O457        O  0.06932006  0.07940459  0.43286182    -0.78500
C458        C  0.10249717  0.03815029  0.52070024     0.85000
O459        O  0.11080264  0.05064109  0.48920850    -0.65700
Ni460      Ni  0.05767732  0.02409750  0.35895916     1.27400
Ni461      Ni  0.07734475  0.95883836  0.42128040     1.26100
H462        H  0.12599096  0.98137461  0.45927918     0.39500
O463        O  0.91573758  0.48519833  0.03311122    -0.80400
O464        O  0.06540137  0.43900490  0.96031355    -0.65100
O465        O  0.98513573  0.45596706  0.02169409    -1.11700
C466        C  0.04248558  0.56628717  0.04953959     1.06400
O467        O  0.10672266  0.47897332  0.98401699    -0.78300
O468        O  0.08316019  0.47075737  0.05210571    -0.65900
Ni469      Ni  0.93697902  0.45268503  0.99863176     1.34900
C470        C  0.05852153  0.46550746  0.07525719     0.85200
O471        O  0.00739736  0.39788205  0.98400435    -0.78900
O472        O  0.95251286  0.41733726  0.96453253    -0.89200
C473        C  0.09765007  0.45284098  0.96322549     0.84800
O474        O  0.94841860  0.49130370  0.96427700    -0.67400
O475        O  0.07048177  0.54575775  0.05198391    -0.86600
C476        C  0.97175212  0.48634666  0.93971147     0.85600
C477        C  0.97394635  0.39129060  0.97360417     1.07200
H478        H  0.03153299  0.51383894  0.97698294     0.39000
O479        O  0.03675055  0.49847264  0.99852244    -1.09300
O480        O  0.02936699  0.48503255  0.07438433    -0.66000
Ni481      Ni  0.99910751  0.50428870  0.03264872     1.26300
O482        O  0.99875372  0.46453469  0.94531128    -0.66200
O483        O  0.01122071  0.55373304  0.04029302    -0.78500
C484        C  0.92864427  0.49925203  0.06284975     0.85000
O485        O  0.96216805  0.50825181  0.06703478    -0.65700
Ni486      Ni  0.08532971  0.51026114  0.01746827     1.27400
Ni487      Ni  0.02432078  0.44776084  0.99011933     1.26100
H488        H  0.98698803  0.43991171  0.04307494     0.39500
N489        N  0.27597189  0.04073730  0.23666282    -0.36200
N490        N  0.33159483  0.03448911  0.18250989    -0.56700
N491        N  0.38962831  0.02878930  0.24144052    -0.36200
N492        N  0.33321106  0.03897961  0.29562008    -0.56700
C493        C  0.25495550  0.04796435  0.20573997     0.27400
C494        C  0.25563766  0.04835290  0.26566417     0.27400
C495        C  0.41048367  0.03226387  0.21151533     0.27400
C496        C  0.41141023  0.03603836  0.27184688     0.27400
C497        C  0.30093508  0.03245282  0.15992312     0.36000
C498        C  0.36024224  0.02501286  0.16237023     0.36000
C499        C  0.30287963  0.03341197  0.31547065     0.36000
C500        C  0.36270000  0.02975453  0.31790901     0.36000
C501        C  0.22077454  0.06032131  0.21519099    -0.21400
C502        C  0.22111902  0.06040198  0.25296740    -0.21400
C503        C  0.44632153  0.04108138  0.22315411    -0.21400
C504        C  0.44685755  0.04366866  0.26105559    -0.21400
C505        C  0.31013821  0.02208415  0.12530505    -0.22500
C506        C  0.34748176  0.01757539  0.12671727    -0.22500
C507        C  0.31313510  0.02082842  0.35050027    -0.22500
C508        C  0.35087486  0.01820942  0.35196543    -0.22500
C509        C  0.26470504  0.04097185  0.16940771    -0.17800
C510        C  0.26614724  0.04117346  0.30304983    -0.17800
C511        C  0.40028607  0.03409763  0.30900854    -0.17800
C512        C  0.39809111  0.02653655  0.17425101    -0.17800
H513        H  0.19764421  0.06764200  0.19679293     0.15100
H514        H  0.19815595  0.06763359  0.26916824     0.15100
H515        H  0.46968573  0.04528247  0.20612040     0.15100
H516        H  0.47072945  0.05017100  0.27865333     0.15100
H517        H  0.29192653  0.01854013  0.10127678     0.13300
H518        H  0.36319933  0.01035974  0.10353890     0.13300
H519        H  0.29530773  0.01426524  0.37273764     0.13300
H520        H  0.36771677  0.00909109  0.37561328     0.13300
H521        H  0.30077021  0.02688826  0.23811114     0.26600
H522        H  0.36280661  0.01873559  0.24134238     0.26600
O523        O  0.12790395  0.02321475  0.94806506    -0.80400
O524        O  0.06107441  0.07097420  0.09705463    -0.65100
O525        O  0.07648741  0.03822187  0.99994568    -1.11700
C526        C  0.11831177  0.16092901  0.98338943     1.06400
O527        O  0.03443011  0.11761167  0.06902657    -0.78300
O528        O  0.03671562  0.14889316  0.00177985    -0.65900
Ni529      Ni  0.11209918  0.00198465  0.99399777     1.34900
C530        C  0.02170538  0.12369317  0.98315159     0.85200
O531        O  0.04926493  0.00446393  0.06065135    -0.78900
O532        O  0.09696702  0.97637051  0.03735462    -0.89200
C533        C  0.04630513  0.10227861  0.09852224     0.84800
O534        O  0.15067096  0.02670630  0.02230977    -0.67400
O535        O  0.10817933  0.16710019  0.01578591    -0.86600
C536        C  0.14801165  0.03303120  0.05630205     0.85600
C537        C  0.06588744  0.97514925  0.05226318     1.07200
H538        H  0.11737509  0.09851210  0.04079712     0.39000
O539        O  0.09183967  0.09740581  0.03213110    -1.09300
O540        O  0.03914573  0.09546828  0.97493656    -0.66000
Ni541      Ni  0.09091782  0.08502041  0.98225081     1.26300
O542        O  0.11696538  0.03744128  0.07025565    -0.66200
O543        O  0.10712692  0.13298056  0.96535235    -0.78500
C544        C  0.11035209  0.04322985  0.92404331     0.85000
O545        O  0.08987730  0.06888355  0.93342146    -0.65700
Ni546      Ni  0.07104484  0.14287694  0.04271185     1.27400
Ni547      Ni  0.06950921  0.05226316  0.04895004     1.26100
H548        H  0.05327890  0.03050268  0.98843074     0.39500
N549        N  0.07461525  0.28418314  0.20368079    -0.36200
N550        N  0.08292547  0.34338312  0.25409826    -0.56700
N551        N  0.08376691  0.29304801  0.31759957    -0.36200
N552        N  0.07373583  0.23392379  0.26644610    -0.56700
C553        C  0.06668490  0.31267892  0.18038515     0.27400
C554        C  0.06347446  0.25321744  0.18678154     0.27400
C555        C  0.07658927  0.32523513  0.33301703     0.27400
C556        C  0.07061727  0.26635372  0.33979325     0.27400
C557        C  0.08738500  0.36207714  0.22223844     0.36000
C558        C  0.09411980  0.36587056  0.28128820     0.36000
C559        C  0.07612292  0.20962609  0.23932804     0.36000
C560        C  0.07903262  0.21487778  0.29838659     0.36000
C561        C  0.05108187  0.29958866  0.14779830    -0.21400
C562        C  0.04935733  0.26205285  0.15169695    -0.21400
C563        C  0.05908603  0.31888207  0.36564694    -0.21400
C564        C  0.05563570  0.28159079  0.37008427    -0.21400
C565        C  0.10197839  0.39643641  0.22915720    -0.22500
C566        C  0.10652339  0.39874642  0.26659389    -0.22500
C567        C  0.08322614  0.17508324  0.25418665    -0.22500
C568        C  0.08524753  0.17845444  0.29153379    -0.22500
C569        C  0.07488014  0.34988744  0.18735181    -0.17800
C570        C  0.06753827  0.21727166  0.20175394    -0.17800
C571        C  0.07244321  0.22867223  0.33331668    -0.17800
C572        C  0.08608951  0.35997039  0.31847611    -0.17800
H573        H  0.04228975  0.31536747  0.12356850     0.15100
H574        H  0.03903478  0.24346563  0.13091671     0.15100
H575        H  0.04955052  0.33899455  0.38424010     0.15100
H576        H  0.04303669  0.26735639  0.39267449     0.15100
H577        H  0.10766132  0.41796177  0.20936266     0.13300
H578        H  0.11587221  0.42263042  0.28141956     0.13300
H579        H  0.08534302  0.14972851  0.23982623     0.13300
H580        H  0.08920998  0.15629729  0.31140896     0.13300
H581        H  0.09013622  0.28531160  0.22827844     0.26600
H582        H  0.09927629  0.28949783  0.29462719     0.26600
N583        N  0.29456302  0.27695560  0.94929309    -0.36200
N584        N  0.34833824  0.33642510  0.95402091    -0.56700
N585        N  0.29398440  0.38749518  0.92204711    -0.36200
N586        N  0.24133671  0.32578890  0.91423983    -0.56700
C587        C  0.32539767  0.25716102  0.95661136     0.27400
C588        C  0.26641297  0.25310226  0.94298809     0.27400
C589        C  0.31893225  0.41147690  0.93681816     0.27400
C590        C  0.26192011  0.40575324  0.91624527     0.27400
C591        C  0.37126909  0.30861462  0.96364859     0.36000
C592        C  0.36878553  0.36738260  0.95580331     0.36000
C593        C  0.21958906  0.29574202  0.91571150     0.36000
C594        C  0.21977074  0.35302418  0.90048213     0.36000
C595        C  0.31641842  0.22026298  0.95489266    -0.21400
C596        C  0.27911669  0.21773779  0.94728696    -0.21400
C597        C  0.30329262  0.44574574  0.93786967    -0.21400
C598        C  0.26738825  0.44214980  0.92495646    -0.21400
C599        C  0.40649652  0.32205372  0.97158095    -0.22500
C600        C  0.40500996  0.35904204  0.96621078    -0.22500
C601        C  0.18480964  0.30310959  0.90054926    -0.22500
C602        C  0.18495324  0.33924986  0.89061341    -0.22500
C603        C  0.36139968  0.27112013  0.96496858    -0.17800
C604        C  0.22962853  0.26236459  0.93298049    -0.17800
C605        C  0.22673684  0.39027772  0.90738328    -0.17800
C606        C  0.35494022  0.40332493  0.95100704    -0.17800
H607        H  0.33473407  0.19727976  0.95871155     0.15100
H608        H  0.26357997  0.19262626  0.94394252     0.15100
H609        H  0.31586996  0.47047015  0.94850239     0.15100
H610        H  0.24703104  0.46359366  0.92375866     0.15100
H611        H  0.43086430  0.30695361  0.98056540     0.13300
H612        H  0.42801565  0.37767393  0.97032098     0.13300
H613        H  0.16130673  0.28476380  0.89839399     0.13300
H614        H  0.16101466  0.35417780  0.88019761     0.13300
H615        H  0.29199860  0.30492215  0.95161896     0.26600
H616        H  0.29845421  0.36033621  0.91621638     0.26600
C617        C  0.15175018  0.22035066  0.98530705    -0.11800
C618        C  0.14464078  0.18745610  0.96697184     0.05200
C619        C  0.16438973  0.18048972  0.93510779    -0.07100
C620        C  0.19134675  0.20551162  0.92363901    -0.07900
C621        C  0.19958634  0.23697307  0.94360160    -0.02400
C622        C  0.17875017  0.24484671  0.97396661     0.04400
N623        N  0.18475066  0.27782427  0.99365709     0.66900
H624        H  0.13668351  0.22709987  0.00918017     0.15800
H625        H  0.20672803  0.19983288  0.89966667     0.15500
N626        N  0.15858950  0.14791782  0.91463242     0.74600
O627        O  0.16339991  0.30440555  0.98719002    -0.38800
O628        O  0.20594324  0.27773153  0.02207632    -0.38800
O629        O  0.15098398  0.15047467  0.88055433    -0.39500
O630        O  0.16986933  0.11784776  0.92820303    -0.39500
C631        C  0.09183677  0.16607770  0.16627210    -0.11800
C632        C  0.06137370  0.18558714  0.17735410     0.05200
C633        C  0.02554393  0.17385561  0.16643263    -0.07100
C634        C  0.02080885  0.14449646  0.14263594    -0.07900
C635        C  0.05130166  0.12537183  0.13091896    -0.02400
C636        C  0.08707706  0.13585252  0.14363208     0.04400
N637        N  0.11896047  0.11806787  0.13126046     0.66900
H638        H  0.11946665  0.17463795  0.17499828     0.15800
H639        H  0.99325874  0.13715367  0.13248155     0.15500
N640        N  0.99385015  0.19180318  0.17901912     0.74600
O641        O  0.13594285  0.13187827  0.10484388    -0.38800
O642        O  0.13404406  0.09319112  0.15097542    -0.38800
O643        O  0.97401362  0.21096257  0.15691079    -0.39500
O644        O  0.98269983  0.18413355  0.21055898    -0.39500
C645        C  0.21280194  0.00837655  0.13684189    -0.11800
C646        C  0.23483048  0.03985090  0.13983121     0.05200
C647        C  0.22998884  0.06822755  0.11327354    -0.07100
C648        C  0.20307429  0.06483159  0.08448434    -0.07900
C649        C  0.18086959  0.03338106  0.08176069    -0.02400
C650        C  0.18604464  0.00493519  0.10815287     0.04400
N651        N  0.16431355  0.97224422  0.10596909     0.66900
H652        H  0.21677366  0.98614537  0.15668592     0.15800
H653        H  0.19850460  0.08736444  0.06511258     0.15500
N654        N  0.25147051  0.10099216  0.11590827     0.74600
O655        O  0.17083068  0.94900809  0.08212294    -0.38800
O656        O  0.14259989  0.96415154  0.13099392    -0.38800
O657        O  0.27539453  0.10798900  0.09267863    -0.39500
O658        O  0.24291629  0.12519923  0.13800542    -0.39500
C659        C  0.15656858  0.42316739  0.97060347    -0.11800
C660        C  0.12848892  0.43579724  0.94620373     0.05200
C661        C  0.13382093  0.43690364  0.90820745    -0.07100
C662        C  0.16715468  0.42424648  0.89523788    -0.07900
C663        C  0.19457987  0.41021405  0.92001865    -0.02400
C664        C  0.18922563  0.41028989  0.95800873     0.04400
N665        N  0.21669836  0.39683385  0.98417794     0.66900
H666        H  0.15327068  0.42371949  0.99994790     0.15800
H667        H  0.17117062  0.42411756  0.86598468     0.15500
N668        N  0.10629137  0.45149527  0.88289584     0.74600
O669        O  0.23663039  0.41908974  0.00226137    -0.38800
O670        O  0.21637996  0.36361647  0.99395420    -0.38800
O671        O  0.11100974  0.48260915  0.86827296    -0.39500
O672        O  0.08049405  0.43114847  0.87077670    -0.39500
C673        C  0.03652949  0.43020265  0.12996009    -0.11800
C674        C  0.06364980  0.43580334  0.10401616     0.05200
C675        C  0.09378636  0.41122913  0.10487575    -0.07100
C676        C  0.09622725  0.38270832  0.13124320    -0.07900
C677        C  0.06942690  0.37794405  0.15731386    -0.02400
C678        C  0.03935322  0.40200051  0.15654518     0.04400
N679        N  0.01138857  0.39807740  0.18269078     0.66900
H680        H  0.01265098  0.44754091  0.12954292     0.15800
H681        H  0.11964570  0.36454073  0.13181626     0.15500
N682        N  0.12196150  0.41417490  0.07889558     0.74600
O683        O  0.98340024  0.37844811  0.17533366    -0.38800
O684        O  0.01138325  0.41912660  0.20961800    -0.38800
O685        O  0.14967048  0.43439505  0.08561859    -0.39500
O686        O  0.12312074  0.39089293  0.05400608    -0.39500
C687        C  0.08554324  0.15453198  0.40565474    -0.11800
C688        C  0.05459291  0.13262107  0.39675542     0.05200
C689        C  0.02549520  0.14761136  0.37445593    -0.07100
C690        C  0.02984465  0.18195110  0.35764480    -0.07900
C691        C  0.06301969  0.20153000  0.36241476    -0.02400
C692        C  0.08999258  0.18886337  0.38851654     0.04400
N693        N  0.12383410  0.20847318  0.39446985     0.66900
H694        H  0.10815952  0.14340693  0.42271355     0.15800
H695        H  0.00875604  0.19172087  0.33790339     0.15500
N696        N  0.99265044  0.12700435  0.36625210     0.74600
O697        O  0.12685308  0.23119139  0.41995752    -0.38800
O698        O  0.15217530  0.19893069  0.37847615    -0.38800
O699        O  0.96615685  0.12858971  0.38735294    -0.39500
O700        O  0.98732163  0.11365747  0.33481992    -0.39500
C701        C  0.19092323  0.06769362  0.36709682    -0.11800
C702        C  0.17311888  0.03396804  0.37244067     0.05200
C703        C  0.18811304  0.00242238  0.35757634    -0.07100
C704        C  0.21941666  0.00514252  0.33657198    -0.07900
C705        C  0.23629838  0.03899308  0.32988162    -0.02400
C706        C  0.22238728  0.07037939  0.34601120     0.04400
N707        N  0.23855942  0.10539973  0.33922875     0.66900
H708        H  0.17908385  0.09229487  0.37736723     0.15800
H709        H  0.22981618  0.98087851  0.32423861     0.15500
N710        N  0.17053256  0.96766011  0.36193847     0.74600
O711        O  0.26272299  0.11780638  0.36171775    -0.38800
O712        O  0.22476641  0.12607060  0.31419458    -0.38800
O713        O  0.15460436  0.95286805  0.33452885    -0.39500
O714        O  0.17665355  0.94913782  0.39111933    -0.39500
C715        C  0.05219935  0.41684995  0.32800483    -0.11800
C716        C  0.08000276  0.39270045  0.34053453     0.05200
C717        C  0.10049326  0.39989722  0.37344962    -0.07100
C718        C  0.09226949  0.43070355  0.39356626    -0.07900
C719        C  0.06410244  0.45436245  0.38099625    -0.02400
C720        C  0.04435589  0.44759679  0.34781266     0.04400
N721        N  0.01589623  0.47162609  0.33419847     0.66900
H722        H  0.03622219  0.41153255  0.30279421     0.15800
H723        H  0.10694883  0.43545355  0.41960860     0.15500
N724        N  0.12909985  0.37596264  0.38699809     0.74600
O725        O  0.02396039  0.49803179  0.31324528    -0.38800
O726        O  0.98252206  0.46278047  0.33747489    -0.38800
O727        O  0.16211468  0.38334733  0.38013541    -0.39500
O728        O  0.12250222  0.35276590  0.41198169    -0.39500
C729        C  0.88479590  0.54103648  0.34060743    -0.11800
C730        C  0.85650449  0.51514771  0.34287036     0.05200
C731        C  0.85673239  0.49051358  0.37318212    -0.07100
C732        C  0.88453804  0.49312462  0.40137655    -0.07900
C733        C  0.91266241  0.51969148  0.39932024    -0.02400
C734        C  0.91313264  0.54290034  0.36780636     0.04400
N735        N  0.94377977  0.56659615  0.36156685     0.66900
H736        H  0.88535731  0.55939018  0.31690772     0.15800
H737        H  0.88421674  0.47438024  0.42475096     0.15500
N738        N  0.82957462  0.46215448  0.37496416     0.74600
O739        O  0.97540466  0.55314165  0.35895469    -0.38800
O740        O  0.93829660  0.59945598  0.35201298    -0.38800
O741        O  0.83095959  0.43522519  0.35410071    -0.39500
O742        O  0.80310637  0.46488466  0.39594131    -0.39500
C743        C  0.89065646  0.52272055  0.15584300    -0.11800
C744        C  0.85457885  0.50923171  0.15165181     0.05200
C745        C  0.84333898  0.49218989  0.11853179    -0.07100
C746        C  0.86735542  0.49110634  0.08974099    -0.07900
C747        C  0.90376715  0.50426211  0.09376401    -0.02400
C748        C  0.91579786  0.51911240  0.12813073     0.04400
N749        N  0.95354295  0.52877494  0.13655262     0.66900
H750        H  0.89962681  0.53556132  0.18125764     0.15800
H751        H  0.85766262  0.47840584  0.06449436     0.15500
N752        N  0.80771581  0.47536590  0.11388826     0.74600
O753        O  0.96100833  0.55904042  0.15111131    -0.38800
O754        O  0.97715253  0.50375576  0.13982409    -0.38800
O755        O  0.78630645  0.48488497  0.08718390    -0.39500
O756        O  0.80034445  0.44701701  0.13249083    -0.39500
C757        C  0.18240915  0.64032475  0.50477557    -0.11800
C758        C  0.20677797  0.63566417  0.47639362     0.05200
C759        C  0.19710864  0.61096303  0.44846799    -0.07100
C760        C  0.16160484  0.59544681  0.44652068    -0.07900
C761        C  0.13522432  0.60453829  0.47188916    -0.02400
C762        C  0.14679179  0.62504917  0.50268780     0.04400
N763        N  0.12212003  0.63203109  0.53108149     0.66900
H764        H  0.18985635  0.65869685  0.52685060     0.15800
H765        H  0.15354376  0.57944450  0.42277888     0.15500
N766        N  0.22133817  0.60491999  0.41946049     0.74600
O767        O  0.11649440  0.60759837  0.55514668    -0.38800
O768        O  0.11108649  0.66407838  0.53572339    -0.38800
O769        O  0.23889660  0.57541045  0.41878881    -0.39500
O770        O  0.22134231  0.62663213  0.39211933    -0.39500
C771        C  0.15982092  0.86568145  0.43458514    -0.11800
C772        C  0.14128452  0.87156509  0.46714003     0.05200
C773        C  0.15389463  0.85232940  0.49941993    -0.07100
C774        C  0.18394678  0.82827039  0.49844508    -0.07900
C775        C  0.20250985  0.82325404  0.46597251    -0.02400
C776        C  0.19004664  0.84213828  0.43383656     0.04400
N777        N  0.20789099  0.83763949  0.40009557     0.66900
H778        H  0.15142594  0.88008927  0.40938027     0.15800
H779        H  0.19289798  0.81340152  0.52323612     0.15500
N780        N  0.13660865  0.85673607  0.53342386     0.74600
O781        O  0.20400188  0.80819200  0.38299047    -0.38800
O782        O  0.22419930  0.86437866  0.38543311    -0.38800
O783        O  0.11193984  0.83436339  0.54272420    -0.39500
O784        O  0.15094581  0.87788992  0.55700867    -0.39500
C785        C  0.02612810  0.93215873  0.08879606    -0.11800
C786        C  0.05183420  0.93794963  0.06160356     0.05200
C787        C  0.06687748  0.90695303  0.04498297    -0.07100
C788        C  0.06211455  0.87226241  0.06047934    -0.07900
C789        C  0.04064948  0.86724722  0.09084607    -0.02400
C790        C  0.01931356  0.89661180  0.10243996     0.04400
N791        N  0.99315134  0.89072772  0.13021407     0.66900
H792        H  0.01260664  0.95512183  0.10047336     0.15800
H793        H  0.07761076  0.84966563  0.05050262     0.15500
N794        N  0.08857008  0.91032783  0.01328705     0.74600
O795        O  0.99534750  0.90872839  0.15935266    -0.38800
O796        O  0.96803655  0.86695914  0.12583002    -0.38800
O797        O  0.12243910  0.90269069  0.01570575    -0.39500
O798        O  0.07285253  0.91573910  0.98207596    -0.39500
C799        C  0.02302649  0.66065145  0.08431846    -0.11800
C800        C  0.05854560  0.67577204  0.08542830     0.05200
C801        C  0.08710113  0.65762789  0.06873924    -0.07100
C802        C  0.08124921  0.62196425  0.05688805    -0.07900
C803        C  0.04636379  0.60525383  0.05874094    -0.02400
C804        C  0.01627763  0.62625212  0.06957415     0.04400
N805        N  0.97901932  0.61313218  0.06639482     0.66900
H806        H  0.00071839  0.67512960  0.09619180     0.15800
H807        H  0.10416177  0.60720956  0.04649284     0.15500
N808        N  0.12274298  0.67417515  0.06630389     0.74600
O809        O  0.95974253  0.61212279  0.09431181    -0.38800
O810        O  0.96308198  0.61155645  0.03494949    -0.38800
O811        O  0.15024721  0.66034245  0.08368171    -0.39500
O812        O  0.12762570  0.69908165  0.04253522    -0.39500
C813        C  0.06234928  0.64316269  0.26904514    -0.11800
C814        C  0.09082670  0.66921751  0.27059113     0.05200
C815        C  0.11554352  0.66960380  0.30151692    -0.07100
C816        C  0.10901245  0.64682596  0.33184327    -0.07900
C817        C  0.07830661  0.62324109  0.33174933    -0.02400
C818        C  0.05595910  0.62011299  0.29922716     0.04400
N819        N  0.02365475  0.59765133  0.29796598     0.66900
H820        H  0.04304679  0.64281262  0.24545817     0.15800
H821        H  0.12655968  0.64939035  0.35655463     0.15500
N822        N  0.14574056  0.69487250  0.30348545     0.74600
O823        O  0.99293928  0.61220547  0.30266304    -0.38800
O824        O  0.02436803  0.56783995  0.28140769    -0.38800
O825        O  0.14516426  0.72121838  0.32515959    -0.39500
O826        O  0.17542061  0.68712410  0.28886087    -0.39500
C827        C  0.09075006  0.89074338  0.32744794    -0.11800
C828        C  0.06113729  0.91481116  0.32185521     0.05200
C829        C  0.03583723  0.91045472  0.29199572    -0.07100
C830        C  0.04087529  0.88222720  0.26770072    -0.07900
C831        C  0.07121597  0.85877634  0.27268938    -0.02400
C832        C  0.09636012  0.86318216  0.30272863     0.04400
N833        N  0.12863218  0.84120094  0.30728714     0.66900
H834        H  0.11031257  0.89415784  0.35051657     0.15800
H835        H  0.02121956  0.87861609  0.24474122     0.15500
N836        N  0.00433388  0.93341826  0.28695592     0.74600
O837        O  0.15752188  0.85086899  0.29160694    -0.38800
O838        O  0.13040397  0.81659249  0.33203402    -0.38800
O839        O  0.00251983  0.95629888  0.26058528    -0.39500
O840        O  0.97593474  0.92643108  0.30461816    -0.39500
C841        C  0.11905711  0.06352981  0.82241596    -0.11800
C842        C  0.14645262  0.03850066  0.81485639     0.05200
C843        C  0.15407907  0.00941708  0.83987518    -0.07100
C844        C  0.14012761  0.01006771  0.87483513    -0.07900
C845        C  0.11690346  0.03831773  0.88460870    -0.02400
C846        C  0.10319182  0.06282153  0.85674235     0.04400
N847        N  0.07370533  0.08721783  0.86290749     0.66900
H848        H  0.11192127  0.08517117  0.80270477     0.15800
H849        H  0.14923033  0.98944725  0.89491046     0.15500
N850        N  0.17942980  0.98150149  0.83161176     0.74600
O851        O  0.07979815  0.12107951  0.86470346    -0.38800
O852        O  0.04087642  0.07560087  0.86037558    -0.38800
O853        O  0.16742449  0.95297042  0.81625605    -0.39500
O854        O  0.21140238  0.98163336  0.84668784    -0.39500
C855        C  0.11636973  0.07750250  0.57491395    -0.11800
C856        C  0.12475985  0.04717839  0.55406162     0.05200
C857        C  0.15196111  0.02255947  0.56756871    -0.07100
C858        C  0.17006801  0.02817068  0.60161312    -0.07900
C859        C  0.16196505  0.05845465  0.62247756    -0.02400
C860        C  0.13509235  0.08343074  0.60893308     0.04400
N861        N  0.12727375  0.11518747  0.62909800     0.66900
H862        H  0.09516009  0.09632433  0.56493714     0.15800
H863        H  0.19121469  0.00922254  0.61153361     0.15500
N864        N  0.16168263  0.99181432  0.54670805     0.74600
O865        O  0.14709658  0.14342836  0.62585169    -0.38800
O866        O  0.10346303  0.11364999  0.65322600    -0.38800
O867        O  0.18523863  0.99558663  0.52249384    -0.39500
O868        O  0.15190979  0.96018723  0.55680913    -0.39500
C869        C  0.92873135  0.16502612  0.96535792    -0.11800
C870        C  0.90870828  0.14416532  0.99052788     0.05200
C871        C  0.92416773  0.11170048  0.00565628    -0.07100
C872        C  0.96009586  0.10218512  0.99751068    -0.07900
C873        C  0.98161696  0.12557996  0.97618087    -0.02400
C874        C  0.96524241  0.15631429  0.95861953     0.04400
N875        N  0.98618026  0.18017227  0.93592457     0.66900
H876        H  0.91693052  0.18962658  0.95291189     0.15800
H877        H  0.97280460  0.07898580  0.01190584     0.15500
N878        N  0.90585371  0.09083949  0.03308479     0.74600
O879        O  0.98838976  0.17346102  0.90230843    -0.38800
O880        O  0.99700108  0.21072121  0.94778391    -0.38800
O881        O  0.89750196  0.05788777  0.02737053    -0.39500
O882        O  0.90497424  0.10281382  0.06522020    -0.39500
C883        C  0.90066291  0.31974274  0.96382497    -0.11800
C884        C  0.90126413  0.30605909  0.00009186     0.05200
C885        C  0.93238547  0.31349993  0.02359665    -0.07100
C886        C  0.96009255  0.33733739  0.01184769    -0.07900
C887        C  0.95684850  0.35480477  0.97728527    -0.02400
C888        C  0.92788929  0.34424820  0.95241387     0.04400
N889        N  0.92430026  0.36039688  0.91638317     0.66900
H890        H  0.87792229  0.31290593  0.94484392     0.15800
H891        H  0.98170777  0.34562082  0.03152227     0.15500
N892        N  0.93417386  0.30048339  0.06086681     0.74600
O893        O  0.94020912  0.34597733  0.89035716    -0.38800
O894        O  0.90020685  0.38447090  0.90933087    -0.38800
O895        O  0.95620411  0.27526509  0.07056428    -0.39500
O896        O  0.91841191  0.31802091  0.08499147    -0.39500
C897        C  0.44597464  0.05877300  0.09014720    -0.11800
C898        C  0.44768691  0.02624121  0.07027081     0.05200
C899        C  0.44155570  0.99282233  0.08941842    -0.07100
C900        C  0.43085939  0.99296239  0.12617917    -0.07900
C901        C  0.42485214  0.02593455  0.14409009    -0.02400
C902        C  0.43437921  0.05887429  0.12627431     0.04400
N903        N  0.42859833  0.09305463  0.14311945     0.66900
H904        H  0.45155077  0.08488614  0.07694627     0.15800
H905        H  0.42305400  0.96739534  0.13927317     0.15500
N906        N  0.44253064  0.95877217  0.07116477     0.74600
O907        O  0.45577522  0.11036529  0.15709134    -0.38800
O908        O  0.39791535  0.10874955  0.13823973    -0.38800
O909        O  0.46889523  0.93718582  0.07832230    -0.39500
O910        O  0.41414625  0.94755547  0.05339517    -0.39500
C911        C  0.35818125  0.02253457  0.89230750    -0.11800
C912        C  0.37466094  0.05412765  0.90751486     0.05200
C913        C  0.36702707  0.08826543  0.88954501    -0.07100
C914        C  0.34549763  0.08976720  0.85663978    -0.07900
C915        C  0.33061279  0.05807729  0.84110038    -0.02400
C916        C  0.33634271  0.02435126  0.85953022     0.04400
N917        N  0.32039952  0.99166219  0.84493292     0.66900
H918        H  0.36340676  0.99598007  0.90501879     0.15800
H919        H  0.34013893  0.11597875  0.84318866     0.15500
N920        N  0.38172959  0.12174524  0.90352294     0.74600
O921        O  0.33643509  0.97463352  0.82063777    -0.38800
O922        O  0.29003154  0.97995406  0.85607865    -0.38800
O923        O  0.40755915  0.13770879  0.88743203    -0.39500
O924        O  0.36446618  0.13857531  0.92708274    -0.39500
C925        C  0.41916705  0.24116392  0.94771648    -0.11800
C926        C  0.39143031  0.24433904  0.97298290     0.05200
C927        C  0.39140950  0.22067975  0.00402006    -0.07100
C928        C  0.41745124  0.19282841  0.00787853    -0.07900
C929        C  0.44474957  0.18927327  0.98219766    -0.02400
C930        C  0.44617657  0.21436883  0.95245374     0.04400
N931        N  0.47318850  0.21136223  0.92540163     0.66900
H932        H  0.41926208  0.25909251  0.92367613     0.15800
H933        H  0.41640812  0.17389769  0.03108172     0.15500
N934        N  0.36470445  0.22424527  0.03133736     0.74600
O935        O  0.46950603  0.18721342  0.90137528    -0.38800
O936        O  0.49743633  0.23596572  0.92219059    -0.38800
O937        O  0.34173002  0.19883492  0.03664636    -0.39500
O938        O  0.36817057  0.24958988  0.05413769    -0.39500
C939        C  0.66384723  0.08902132  0.96221648    -0.11800
C940        C  0.64635643  0.08263667  0.99540751     0.05200
C941        C  0.66569916  0.09039759  0.02877230    -0.07100
C942        C  0.69971974  0.10857895  0.02834479    -0.07900
C943        C  0.71418170  0.12011950  0.99502802    -0.02400
C944        C  0.69724074  0.10860209  0.96173287     0.04400
N945        N  0.71157113  0.11996697  0.92735269     0.66900
H946        H  0.64925292  0.08319709  0.93639641     0.15800
H947        H  0.71296094  0.11706996  0.05405276     0.15500
N948        N  0.64948564  0.08312702  0.06315633     0.74600
O949        O  0.72512923  0.09675726  0.90690152    -0.38800
O950        O  0.71215406  0.15334593  0.91805108    -0.38800
O951        O  0.65594028  0.05319843  0.07986947    -0.39500
O952        O  0.63552979  0.10892129  0.08003672    -0.39500
C953        C  0.57912216  0.18044094  0.84161476    -0.11800
C954        C  0.54542305  0.18520672  0.82179412     0.05200
C955        C  0.51529466  0.16220986  0.83012906    -0.07100
C956        C  0.51924094  0.13571253  0.85848641    -0.07900
C957        C  0.55211521  0.13304382  0.88013206    -0.02400
C958        C  0.58235294  0.15540113  0.87112562     0.04400
N959        N  0.61665786  0.15280824  0.89171423     0.66900
H960        H  0.60274163  0.19717499  0.83488084     0.15800
H961        H  0.49545257  0.11946430  0.86574941     0.15500
N962        N  0.48016492  0.16644870  0.81105262     0.74600
O963        O  0.64089829  0.13147008  0.88121140    -0.38800
O964        O  0.62548853  0.17679873  0.91490337    -0.38800
O965        O  0.46404623  0.13918684  0.79684193    -0.39500
O966        O  0.46362938  0.19657296  0.81142232    -0.39500
C967        C  0.44301458  0.05399728  0.40405259    -0.11800
C968        C  0.46619836  0.02381813  0.41070738     0.05200
C969        C  0.47381583  0.00182124  0.38047039    -0.07100
C970        C  0.45438461  0.00718516  0.34632907    -0.07900
C971        C  0.42847089  0.03529917  0.34090488    -0.02400
C972        C  0.42503998  0.06039395  0.36954146     0.04400
N973        N  0.40146711  0.09134272  0.36465201     0.66900
H974        H  0.43737431  0.07190192  0.42634598     0.15800
H975        H  0.45797815  0.98792833  0.32468087     0.15500
N976        N  0.49905095  0.97217770  0.38462459     0.74600
O977        O  0.37299193  0.09342636  0.38306490    -0.38800
O978        O  0.41298141  0.11942752  0.34798712    -0.38800
O979        O  0.48699978  0.93981736  0.38627626    -0.39500
O980        O  0.53290930  0.97791346  0.38025352    -0.39500
C981        C  0.42661035  0.88055146  0.43519467    -0.11800
C982        C  0.45121031  0.88148496  0.46621655     0.05200
C983        C  0.45069342  0.85225596  0.49200440    -0.07100
C984        C  0.42329468  0.82505306  0.48849466    -0.07900
C985        C  0.39699993  0.82596143  0.45894917    -0.02400
C986        C  0.40011569  0.85277915  0.43114958     0.04400
N987        N  0.37613116  0.85229087  0.39896524     0.66900
H988        H  0.42668544  0.90261776  0.41491873     0.15800
H989        H  0.42190237  0.80364454  0.50937485     0.15500
N990        N  0.47579406  0.85142470  0.52336733     0.74600
O991        O  0.34856087  0.87303789  0.39617306    -0.38800
O992        O  0.38122447  0.82949696  0.37429263    -0.38800
O993        O  0.46505336  0.86061280  0.55423753    -0.39500
O994        O  0.50676839  0.83644802  0.52131201    -0.39500
C995        C  0.37238083  0.07979784  0.64009399    -0.11800
C996        C  0.34401777  0.05525434  0.64829844     0.05200
C997        C  0.34006619  0.02258011  0.62880586    -0.07100
C998        C  0.36408106  0.01509367  0.60104001    -0.07900
C999        C  0.39294557  0.03930075  0.59308987    -0.02400
C1000       C  0.39697707  0.07194700  0.61283837     0.04400
N1001       N  0.42529041  0.09780894  0.60477640     0.66900
H1002       H  0.37509991  0.10526497  0.65456154     0.15800
H1003       H  0.36125706  0.98946386  0.58685714     0.15500
N1004       N  0.31239448  0.99631445  0.63791863     0.74600
O1005       O  0.42060363  0.11975319  0.57784547    -0.38800
O1006       O  0.45159496  0.10296490  0.62796580    -0.38800
O1007       O  0.28324370  0.99358747  0.61791596    -0.39500
O1008       O  0.31567049  0.97804803  0.66762123    -0.39500
C1009       C  0.51978082  0.14131603  0.58996423    -0.11800
C1010       C  0.54833689  0.11586200  0.59678304     0.05200
C1011       C  0.57943527  0.12673465  0.61893832    -0.07100
C1012       C  0.57997247  0.16090088  0.63572619    -0.07900
C1013       C  0.54977425  0.18456540  0.63149682    -0.02400
C1014       C  0.52022041  0.17519355  0.60713905     0.04400
N1015       N  0.48930573  0.19882782  0.60146661     0.66900
H1016       H  0.49624437  0.13453307  0.57199728     0.15800
H1017       H  0.60281883  0.16777665  0.65457462     0.15500
N1018       N  0.60963803  0.10266229  0.62677827     0.74600
O1019       O  0.48791976  0.22081223  0.57432901    -0.38800
O1020       O  0.46130226  0.19419136  0.62032969    -0.38800
O1021       O  0.64006804  0.10889384  0.61237691    -0.39500
O1022       O  0.60804670  0.07969002  0.65295892    -0.39500
C1023       C  0.45581333  0.63506446  0.51159428    -0.11800
C1024       C  0.47755562  0.62352683  0.48311410     0.05200
C1025       C  0.46021992  0.61752211  0.44832827    -0.07100
C1026       C  0.42296511  0.62761668  0.44163003    -0.07900
C1027       C  0.40280295  0.64326408  0.46941589    -0.02400
C1028       C  0.41908511  0.64503941  0.50507615     0.04400
N1029       N  0.40001807  0.66109818  0.53404772     0.66900
H1030       H  0.46813614  0.63871129  0.53894056     0.15800
H1031       H  0.41081276  0.62625358  0.41399057     0.15500
N1032       N  0.48066359  0.60428416  0.41894028     0.74600
O1033       O  0.38526148  0.64079105  0.55769409    -0.38800
O1034       O  0.40393374  0.69475440  0.53989699    -0.38800
O1035       O  0.47967421  0.57070926  0.41197562    -0.39500
O1036       O  0.49464609  0.62654783  0.39654623    -0.39500
C1037       C  0.62414482  0.56311277  0.37196245    -0.11800
C1038       C  0.63137948  0.53694669  0.40021512     0.05200
C1039       C  0.65503129  0.50755408  0.39317862    -0.07100
C1040       C  0.67245156  0.50633294  0.35989753    -0.07900
C1041       C  0.66800714  0.53431937  0.33333207    -0.02400
C1042       C  0.64248557  0.56217468  0.33884252     0.04400
N1043       N  0.63667461  0.59088148  0.31214919     0.66900
H1044       H  0.60569250  0.58552171  0.37625827     0.19800
H1045       H  0.69181940  0.48459865  0.35581641     0.15500
N1046       N  0.66336654  0.47954948  0.42011764     0.74600
O1047       O  0.60767566  0.59097770  0.29169278    -0.38800
O1048       O  0.65710975  0.61890276  0.31322010    -0.38800
O1049       O  0.64529657  0.44998750  0.41930769    -0.39500
O1050       O  0.69299070  0.48140042  0.43954725    -0.39500
C1051       C  0.56503435  0.40677719  0.64513945    -0.11800
C1052       C  0.54157850  0.37921183  0.63087364     0.05200
C1053       C  0.52366895  0.38504257  0.59609332    -0.07100
C1054       C  0.52961579  0.41789674  0.57645694    -0.07900
C1055       C  0.55148205  0.44606197  0.59183661    -0.02400
C1056       C  0.56912201  0.44029308  0.62664100     0.04400
N1057       N  0.59211676  0.46786873  0.64316876     0.66900
H1058       H  0.57909741  0.40276696  0.67178953     0.15800
H1059       H  0.51661100  0.42172004  0.54930633     0.15500
N1060       N  0.49850602  0.35855904  0.58095928     0.74600
O1061       O  0.57748185  0.49420904  0.65861700    -0.38800
O1062       O  0.62613859  0.46214597  0.64882169    -0.38800
O1063       O  0.46640581  0.35599509  0.59268390    -0.39500
O1064       O  0.50592388  0.34261964  0.55190503    -0.39500
C1065       C  0.67594957  0.36527290  0.01951988    -0.11800
C1066       C  0.64953381  0.36524357  0.99015223     0.05200
C1067       C  0.64997537  0.33683730  0.96464860    -0.07100
C1068       C  0.67781517  0.31033942  0.96787948    -0.07900
C1069       C  0.70459241  0.31072678  0.99708740    -0.02400
C1070       C  0.70268056  0.33799676  0.02365656     0.04400
N1071       N  0.72736775  0.33798759  0.05536194     0.66900
H1072       H  0.67567526  0.38660811  0.03963668     0.15800
H1073       H  0.67874521  0.28951076  0.94730982     0.15500
N1074       N  0.62359654  0.33558318  0.93435043     0.74600
O1075       O  0.72142704  0.31646896  0.08196540    -0.38800
O1076       O  0.75046630  0.36365949  0.05962965    -0.38800
O1077       O  0.63248744  0.34685809  0.90300545    -0.39500
O1078       O  0.59399110  0.31771945  0.93752335    -0.39500
C1079       C  0.50008815  0.37563322  0.83774927    -0.11800
C1080       C  0.52900676  0.37549594  0.81386422     0.05200
C1081       C  0.55735341  0.40190950  0.81733591    -0.07100
C1082       C  0.55722202  0.42703622  0.84583761    -0.07900
C1083       C  0.52969110  0.42534172  0.87163765    -0.02400
C1084       C  0.50041167  0.39978809  0.86681418     0.04400
N1085       N  0.47223686  0.39597701  0.89276604     0.66900
H1086       H  0.47816852  0.35544785  0.83502011     0.15800
H1087       H  0.58042224  0.44559217  0.84976228     0.15500
N1088       N  0.58806848  0.40123244  0.79424336     0.74600
O1089       O  0.44044425  0.40788524  0.88414926    -0.38800
O1090       O  0.47585756  0.37192690  0.91793597    -0.38800
O1091       O  0.58885246  0.42201496  0.76624330    -0.39500
O1092       O  0.61408873  0.37922428  0.80137337    -0.39500
C1093       C  0.65792120  0.49891453  0.08345604    -0.11800
C1094       C  0.65115507  0.53052799  0.06146401     0.05200
C1095       C  0.65330067  0.56479666  0.07878009    -0.07100
C1096       C  0.66400031  0.56680535  0.11628668    -0.07900
C1097       C  0.67381816  0.53536717  0.13702297    -0.02400
C1098       C  0.66936258  0.50110632  0.12059786     0.04400
N1099       N  0.67905374  0.46836417  0.14063577     0.66900
H1100       H  0.65588151  0.47211695  0.07151915     0.15800
H1101       H  0.66802451  0.59337192  0.12839690     0.15500
N1102       N  0.64715553  0.59805439  0.05837648     0.74600
O1103       O  0.65441288  0.45023551  0.15639977    -0.38800
O1104       O  0.71029634  0.45438151  0.13714542    -0.38800
O1105       O  0.61743165  0.61507236  0.06137111    -0.39500
O1106       O  0.67379896  0.61370914  0.04328758    -0.39500
C1107       C  0.39447856  0.45705473  0.93540136    -0.11800
C1108       C  0.38004093  0.43398849  0.96241417     0.05200
C1109       C  0.39498126  0.43570787  0.99876051    -0.07100
C1110       C  0.42856288  0.45393825  0.00564269    -0.07900
C1111       C  0.44629490  0.47234346  0.97714836    -0.02400
C1112       C  0.42699126  0.47703306  0.94279382     0.04400
N1113       N  0.44190836  0.49876987  0.91394556     0.66900
H1114       H  0.38233315  0.45713658  0.90768365     0.15800
H1115       H  0.44232363  0.45112004  0.03256036     0.15500
N1116       N  0.37833744  0.41580080  0.02793150     0.74600
O1117       O  0.46175149  0.48424775  0.89090327    -0.38800
O1118       O  0.42934569  0.53031914  0.90733830    -0.38800
O1119       O  0.39597413  0.39091578  0.04535391    -0.39500
O1120       O  0.34794982  0.42623558  0.03929660    -0.39500
C1121       C  0.92104577  0.91857257  0.50258873    -0.11800
C1122       C  0.90066940  0.92113209  0.46884518     0.05200
C1123       C  0.91758735  0.93730253  0.43852214    -0.07100
C1124       C  0.95522329  0.94668400  0.44116741    -0.07900
C1125       C  0.97669380  0.94150713  0.47418352    -0.02400
C1126       C  0.95848698  0.92922047  0.50565286     0.04400
N1127       N  0.97813424  0.92474725  0.54025057     0.66900
H1128       H  0.90857867  0.90565842  0.52604268     0.15800
H1129       H  0.96795612  0.95716983  0.41674157     0.15500
N1130       N  0.89775609  0.94064254  0.40380990     0.74600
O1131       O  0.97803134  0.95007305  0.56313404    -0.38800
O1132       O  0.98990948  0.89365897  0.55031716    -0.38800
O1133       O  0.87059713  0.96185962  0.40002526    -0.39500
O1134       O  0.90539626  0.92020860  0.37785769    -0.39500
C1135       C  0.68457159  0.90476309  0.49331911    -0.11800
C1136       C  0.70174122  0.91801939  0.46195633     0.05200
C1137       C  0.68337618  0.94440865  0.43926366    -0.07100
C1138       C  0.64805025  0.95646232  0.44787902    -0.07900
C1139       C  0.63060808  0.94234170  0.47884585    -0.02400
C1140       C  0.64948408  0.91651488  0.50181567     0.04400
N1141       N  0.63324425  0.90207117  0.53414372     0.66900
H1142       H  0.69792014  0.88377218  0.51048176     0.15800
H1143       H  0.63484014  0.97784159  0.43116867     0.15500
N1144       N  0.70043600  0.95937496  0.40772768     0.74600
O1145       O  0.60578026  0.88080686  0.53121045    -0.38800
O1146       O  0.64905704  0.90675283  0.56526158    -0.38800
O1147       O  0.68768268  0.95181412  0.37600327    -0.39500
O1148       O  0.72429097  0.98442691  0.41157585    -0.39500
C1149       C  0.69501075  0.70879856  0.43894779    -0.11800
C1150       C  0.69863437  0.74151580  0.45820751     0.05200
C1151       C  0.67243532  0.74974619  0.48397110    -0.07100
C1152       C  0.64357483  0.72536685  0.49036890    -0.07900
C1153       C  0.64076021  0.69140625  0.47290801    -0.02400
C1154       C  0.66647683  0.68369318  0.44611542     0.04400
N1155       N  0.66495857  0.65012024  0.42692591     0.66900
H1156       H  0.71494908  0.70236127  0.41888933     0.15800
H1157       H  0.62451366  0.73237546  0.51105594     0.15500
N1158       N  0.67640531  0.78154625  0.50594542     0.74600
O1159       O  0.64670791  0.64834829  0.39671638    -0.38800
O1160       O  0.68684613  0.62475538  0.43655895    -0.38800
O1161       O  0.65286489  0.80664878  0.50243586    -0.39500
O1162       O  0.69964771  0.78172259  0.53277379    -0.39500
C1163       C  0.88551386  0.70532328  0.45001465    -0.11800
C1164       C  0.89074865  0.73493438  0.47326678     0.05200
C1165       C  0.92242574  0.73611293  0.49731938    -0.07100
C1166       C  0.94836729  0.70793053  0.49718983    -0.07900
C1167       C  0.94243949  0.67788163  0.47444424    -0.02400
C1168       C  0.91056666  0.67674322  0.45068276     0.04400
N1169       N  0.90433516  0.64795525  0.42520496     0.66900
H1170       H  0.86178411  0.70453079  0.43085260     0.15800
H1171       H  0.97271184  0.70908367  0.51549428     0.15500
N1172       N  0.92820508  0.76526881  0.52241579     0.74600
O1173       O  0.88933689  0.61860284  0.43577622    -0.38800
O1174       O  0.90498994  0.65521924  0.39125652    -0.38800
O1175       O  0.91006246  0.76579581  0.55108484    -0.39500
O1176       O  0.95566610  0.78632753  0.51948979    -0.39500
C1177       C  0.51470784  0.88770575  0.89056840    -0.11800
C1178       C  0.54812651  0.88186235  0.87400824     0.05200
C1179       C  0.57761829  0.90677920  0.88068082    -0.07100
C1180       C  0.57262106  0.93754584  0.90224446    -0.07900
C1181       C  0.53917386  0.94317869  0.91900483    -0.02400
C1182       C  0.51030861  0.91725368  0.91360167     0.04400
N1183       N  0.47556451  0.92136648  0.92988593     0.66900
H1184       H  0.49148642  0.86955640  0.88494787     0.15800
H1185       H  0.59511966  0.95690791  0.90617407     0.15500
N1186       N  0.61234217  0.90186090  0.86455435     0.74600
O1187       O  0.44928008  0.93648135  0.91170222    -0.38800
O1188       O  0.46927526  0.90419123  0.95934595    -0.38800
O1189       O  0.62312909  0.92459988  0.84077736    -0.39500
O1190       O  0.63478531  0.87890370  0.87866547    -0.39500
C1191       C  0.52246479  0.65757339  0.86321540    -0.11800
C1192       C  0.54680681  0.68654739  0.87273598     0.05200
C1193       C  0.57043033  0.68182468  0.90421155    -0.07100
C1194       C  0.57065091  0.64847847  0.92402516    -0.07900
C1195       C  0.54902069  0.61815625  0.91250942    -0.02400
C1196       C  0.52393287  0.62349959  0.88210322     0.04400
N1197       N  0.50125563  0.59424674  0.86862701     0.66900
H1198       H  0.50402360  0.66055950  0.83912392     0.15800
H1199       H  0.59008824  0.64573019  0.94734781     0.15500
N1200       N  0.59679874  0.70934490  0.91466568     0.74600
O1201       O  0.46759773  0.59317902  0.87577968    -0.38800
O1202       O  0.51264857  0.57446640  0.84368927    -0.38800
O1203       O  0.59575049  0.72345052  0.94586254    -0.39500
O1204       O  0.62471241  0.71462955  0.89580736    -0.39500
C1205       C  0.51493620  0.90407536  0.67331763    -0.11800
C1206       C  0.54847616  0.88632852  0.68208004     0.05200
C1207       C  0.58022281  0.89855467  0.66461450    -0.07100
C1208       C  0.57819934  0.92792564  0.63918776    -0.07900
C1209       C  0.54475038  0.94613608  0.63020261    -0.02400
C1210       C  0.51273514  0.93353704  0.64769621     0.04400
N1211       N  0.47759903  0.94973856  0.63944414     0.66900
H1212       H  0.49027488  0.89506685  0.68663288     0.15800
H1213       H  0.60330745  0.93646455  0.62641548     0.15500
N1214       N  0.61502803  0.88171822  0.67293350     0.74600
O1215       O  0.45549563  0.93500557  0.61638374    -0.38800
O1216       O  0.46588181  0.97356101  0.66037962    -0.38800
O1217       O  0.62689272  0.85840934  0.65152091    -0.39500
O1218       O  0.63642980  0.89460955  0.69773819    -0.39500
C1219       C  0.52478808  0.67501090  0.68077557    -0.11800
C1220       C  0.55833376  0.69361767  0.68695287     0.05200
C1221       C  0.59011781  0.68138369  0.67052307    -0.07100
C1222       C  0.58790459  0.65090968  0.64795587    -0.07900
C1223       C  0.55420781  0.63255558  0.64125006    -0.02400
C1224       C  0.52240503  0.64505762  0.65759323     0.04400
N1225       N  0.48733979  0.62817351  0.65000553     0.66900
H1226       H  0.50031893  0.68405524  0.69377076     0.15800
H1227       H  0.61207767  0.64285583  0.63395412     0.15500
N1228       N  0.62448244  0.70026742  0.67589991     0.74600
O1229       O  0.47558878  0.60412311  0.67192886    -0.38800
O1230       O  0.46572872  0.64155339  0.62525870    -0.38800
O1231       O  0.64481763  0.69365951  0.70422081    -0.39500
O1232       O  0.63275677  0.72607712  0.65425109    -0.39500
C1233       C  0.92641845  0.53473624  0.85694293    -0.11800
C1234       C  0.93691482  0.51123237  0.82936294     0.05200
C1235       C  0.96637453  0.48724624  0.83682174    -0.07100
C1236       C  0.98080729  0.48307538  0.87285546    -0.07900
C1237       C  0.96520408  0.50146170  0.90190511    -0.02400
C1238       C  0.93958814  0.52942770  0.89333351     0.04400
N1239       N  0.92401209  0.55015451  0.92142243     0.66900
H1240       H  0.90402445  0.55368848  0.85119730     0.15800
H1241       H  0.00127480  0.46210434  0.87846320     0.15500
N1242       N  0.97798909  0.46303077  0.80950529     0.74600
O1243       O  0.93908012  0.57984998  0.93091438    -0.38800
O1244       O  0.89188884  0.54266225  0.93127767    -0.38800
O1245       O  0.00850362  0.46854070  0.79503226    -0.39500
O1246       O  0.96144112  0.43291575  0.80501639    -0.39500
C1247       C  0.94532570  0.48953206  0.62502879    -0.11800
C1248       C  0.92018807  0.51609534  0.63456493     0.05200
C1249       C  0.91413255  0.54667494  0.61109959    -0.07100
C1250       C  0.93172300  0.54935521  0.57781558    -0.07900
C1251       C  0.95557352  0.52188007  0.56699305    -0.02400
C1252       C  0.96316107  0.49220081  0.59169823     0.04400
N1253       N  0.98880518  0.46452608  0.58353083     0.66900
H1254       H  0.95017037  0.46595259  0.64300467     0.15800
H1255       H  0.92564681  0.57269989  0.55987788     0.15500
N1256       N  0.88910193  0.57462130  0.62015829     0.74600
O1257       O  0.02231949  0.46824115  0.59363343    -0.38800
O1258       O  0.97704231  0.43385818  0.57285885    -0.38800
O1259       O  0.90160063  0.60385279  0.63371774    -0.39500
O1260       O  0.85605939  0.57327401  0.60787113    -0.39500
C1261       C  0.76191258  0.52225933  0.86470532    -0.11800
C1262       C  0.75537644  0.49380006  0.83993276     0.05200
C1263       C  0.72854999  0.46717220  0.84749256    -0.07100
C1264       C  0.70809458  0.46979147  0.87891824    -0.07900
C1265       C  0.71353193  0.49897780  0.90319500    -0.02400
C1266       C  0.74126510  0.52505798  0.89611740     0.04400
N1267       N  0.74917795  0.55409975  0.92084666     0.66900
H1268       H  0.78322923  0.54238367  0.85957142     0.15800
H1269       H  0.68653271  0.44972466  0.88329361     0.15500
N1270       N  0.72167582  0.43742500  0.82336345     0.74600
O1271       O  0.76991068  0.54837928  0.94908417    -0.38800
O1272       O  0.74047151  0.58637383  0.91160916    -0.38800
O1273       O  0.73828558  0.40765811  0.82940399    -0.39500
O1274       O  0.69490874  0.43883992  0.80004728    -0.39500
C1275       C  0.72444231  0.54016223  0.63662883    -0.11800
C1276       C  0.73412317  0.50424882  0.64647922     0.05200
C1277       C  0.71711160  0.47504065  0.62761671    -0.07100
C1278       C  0.69099374  0.48219489  0.59893969    -0.07900
C1279       C  0.68007343  0.51810371  0.59008421    -0.02400
C1280       C  0.69720693  0.54726831  0.60908796     0.04400
N1281       N  0.68733093  0.58422991  0.60061736     0.66900
H1282       H  0.73798284  0.56275556  0.65061118     0.15800
H1283       H  0.67728260  0.45946977  0.58533693     0.15500
N1284       N  0.72508805  0.43808567  0.63832749     0.74600
O1285       O  0.66819524  0.60133331  0.62245578    -0.38800
O1286       O  0.70361994  0.60162619  0.57580662    -0.38800
O1287       O  0.71336790  0.42521355  0.66802737    -0.39500
O1288       O  0.73882949  0.41695389  0.61586766    -0.39500
loop_ 
_geom_bond_atom_site_label_1 
_geom_bond_atom_site_label_2 
_geom_bond_distance 
_geom_bond_site_symmetry_2 
_ccdc_geom_bond_type 
N1            C6   1.354       .  A
N1            C5   1.350       .  A
N1           H33   1.041       .  S
N2            C9   1.352       .  A
N2           C10   1.352       .  A
N3            C8   1.352       .  A
N3            C7   1.351       .  A
N3           H34   1.040       .  S
N4           C11   1.350       .  A
N4           C12   1.346       .  A
C5           C13   1.388       .  A
C5           C21   1.415       .  A
C6           C22   1.414       .  A
C6           C14   1.385       .  A
C7           C15   1.387       .  A
C7           C24   1.414       .  A
C8           C23   1.413       .  A
C8           C16   1.386       .  A
C9           C21   1.413       .  A
C9           C17   1.387       .  A
C10          C24   1.414       .  A
C10          C18   1.386       .  A
C11          C19   1.384       .  A
C11          C22   1.404       .  A
C12          C20   1.390       .  A
C12          C23   1.411       .  A
C13          C14   1.380       .  A
C13          H25   1.082       .  S
C14          H26   1.082       .  S
C15          C16   1.383       .  A
C15          H27   1.082       .  S
C16          H28   1.082       .  S
C17          C18   1.370       .  A
C17          H29   1.082       .  S
C18          H30   1.082       .  S
C19          C20   1.369       .  A
C19          H31   1.083       .  S
C20          H32   1.082       .  S
C21        C1276   1.482       .  S
C22        C1262   1.489       .  S
C23        C1234   1.483       .  S
C24        C1248   1.487       .  S
N35          C40   1.354       .  A
N35          C39   1.358       .  A
N35          H67   1.036       .  S
N36          C43   1.360       .  A
N36          C44   1.355       .  A
N37          C42   1.364       .  A
N37          C41   1.356       .  A
N37          H68   1.036       .  S
N38          C45   1.350       .  A
N38          C46   1.353       .  A
C39          C47   1.387       .  A
C39          C55   1.423       .  A
C40          C56   1.420       .  A
C40          C48   1.387       .  A
C41          C49   1.391       .  A
C41          C58   1.433       .  A
C42          C57   1.430       .  A
C42          C50   1.384       .  A
C43          C55   1.421       .  A
C43          C51   1.383       .  A
C44          C58   1.429       .  A
C44          C52   1.391       .  A
C45          C53   1.387       .  A
C45          C56   1.412       .  A
C46          C54   1.386       .  A
C46          C57   1.415       .  A
C47          C48   1.380       .  A
C47          H59   1.082       .  S
C48          H60   1.082       .  S
C49          C50   1.381       .  A
C49          H61   1.081       .  S
C50          H62   1.082       .  S
C51          C52   1.368       .  A
C51          H63   1.082       .  S
C52          H64   1.081       .  S
C53          C54   1.366       .  A
C53          H65   1.082       .  S
C54          H66   1.082       .  S
C55        C1206   1.507       .  S
C56        C1220   1.483       .  S
C57        C1192   1.515       .  S
C58        C1178   1.501       .  S
N69          C74   1.350       .  A
N69          C73   1.352       .  A
N69         H101   1.041       .  S
N70          C77   1.351       .  A
N70          C78   1.348       .  A
N71          C76   1.357       .  A
N71          C75   1.356       .  A
N71         H102   1.041       .  S
N72          C79   1.352       .  A
N72          C80   1.350       .  A
C73          C81   1.387       .  A
C73          C89   1.413       .  A
C74          C90   1.412       .  A
C74          C82   1.387       .  A
C75          C83   1.388       .  A
C75          C92   1.425       .  A
C76          C91   1.422       .  A
C76          C84   1.385       .  A
C77          C89   1.411       .  A
C77          C85   1.384       .  A
C78          C92   1.412       .  A
C78          C86   1.389       .  A
C79          C87   1.384       .  A
C79          C90   1.409       .  A
C80          C88   1.388       .  A
C80          C91   1.412       .  A
C81          C82   1.379       .  A
C81          H93   1.082       .  S
C82          H94   1.082       .  S
C83          C84   1.389       .  A
C83          H95   1.082       .  S
C84          H96   1.082       .  S
C85          C86   1.373       .  A
C85          H97   1.082       .  S
C86          H98   1.082       .  S
C87          C88   1.370       .  A
C87          H99   1.082       .  S
C88         H100   1.082       .  S
C89        C1150   1.492       .  S
C90        C1164   1.488       .  S
C91        C1122   1.497       .  S
C92        C1136   1.494       .  S
O103       Ni109   1.918       .  S
O103        C124   1.273       .  A
O104       Ni127   1.895       .  S
O104        C113   1.262       .  A
O105       Ni109   1.890       .  S
O105       Ni127   1.879       .  S
O105       Ni121   1.897       .  S
O105        H128   0.966       .  S
C106       C1111   1.480       .  S
C106        O123   1.276       .  A
C106        O115   1.276       .  A
O107       Ni126   1.953       .  S
O107        C113   1.273       .  A
O108       Ni126   1.894       .  S
O108        C110   1.269       .  A
Ni109       O112   1.942       .  S
Ni109       O114   1.925   1_556  S
C110       C1083   1.476       .  S
C110        O120   1.284       .  A
O111       Ni127   1.906       .  S
O111        C117   1.279       .  A
O112        C117   1.285       .  A
C113       C1066   1.484       .  S
O114        C116   1.268       .  A
O115       Ni126   1.918       .  S
C116       C1094   1.502       .  S
C116        O122   1.266       .  A
C117       C1265   1.485       .  S
H118        O119   0.966   1_554  S
O119       Ni127   1.915       .  S
O119       Ni121   1.932       .  S
O119       Ni126   1.901       .  S
O120       Ni121   1.951       .  S
Ni121       O125   1.955       .  S
Ni121       O123   1.924       .  S
O122       Ni127   1.918   1_554  S
C124       C1195   1.510       .  S
C124        O125   1.285       .  A
O129       Ni135   1.931       .  S
O129        C150   1.274       .  A
O130       Ni153   1.936       .  S
O130        C139   1.273       .  A
O131       Ni135   1.895       .  S
O131       Ni153   1.909       .  S
O131       Ni147   1.922       .  S
O131        H154   0.966       .  S
C132       C1153   1.497       .  S
C132        O149   1.288       .  A
C132        O141   1.278       .  A
O133       Ni152   1.895       .  S
O133        C139   1.259       .  A
O134       Ni152   1.889       .  S
O134        C136   1.264       .  A
Ni135       O138   1.921       .  S
Ni135       O140   1.916       .  S
C136       C1024   1.490       .  S
C136        O146   1.276       .  A
O137       Ni153   1.934       .  S
O137        C143   1.285       .  A
O138        C143   1.277       .  A
C139       C1223   1.469       .  S
O140        C142   1.270       .  A
O141       Ni152   1.899       .  S
C142       C1279   1.475       .  S
C142        O148   1.268       .  A
C143       C1055   1.477       .  S
H144        O145   0.966       .  S
O145       Ni153   1.920       .  S
O145       Ni147   1.885       .  S
O145       Ni152   1.882       .  S
O146       Ni147   1.958       .  S
Ni147       O151   1.915       .  S
Ni147       O149   1.957       .  S
O148       Ni153   1.914       .  S
C150       C1038   1.493       .  S
C150        O151   1.274       .  A
O155       Ni161   1.940   1_545  S
O155        C176   1.274       .  A
O156       Ni179   1.940       .  S
O156        C165   1.279       .  A
O157       Ni161   1.912       .  S
O157       Ni179   1.913       .  S
O157       Ni173   1.900   1_565  S
O157        H180   0.963       .  S
C158       C1010   1.499       .  S
C158        O175   1.263       .  A
C158        O167   1.270       .  A
O159       Ni178   1.905   1_565  S
O159        C165   1.267       .  A
O160       Ni178   1.906   1_565  S
O160        C162   1.270       .  A
Ni161       O164   1.921       .  S
Ni161       O166   1.912   1_565  S
C162       C1209   1.510       .  S
C162        O172   1.280       .  A
O163       Ni179   1.940       .  S
O163        C169   1.279       .  A
O164        C169   1.268       .  A
C165       C1139   1.479       .  S
O166        C168   1.275       .  A
O167       Ni178   1.941       .  S
C168        C968   1.504       .  S
C168        O174   1.287   1_545  A
C169        C982   1.480       .  S
H170        O171   0.966       .  S
O171       Ni179   1.940   1_545  S
O171       Ni173   1.918       .  S
O171       Ni178   1.934       .  S
O172       Ni173   1.964   1_565  S
Ni173       O177   1.891       .  S
Ni173       O175   1.901       .  S
O174       Ni179   1.980       .  S
C176        C999   1.478       .  S
C176        O177   1.263       .  A
N181        C186   1.354       .  A
N181        C185   1.353       .  A
N181        H213   1.038       .  S
N182        C189   1.349       .  A
N182        C190   1.348       .  A
N183        C188   1.354       .  A
N183        C187   1.358       .  A
N183        H214   1.040       .  S
N184        C191   1.357       .  A
N184        C192   1.353       .  A
C185        C193   1.386       .  A
C185        C201   1.416       .  A
C186        C202   1.420       .  A
C186        C194   1.390       .  A
C187        C195   1.387       .  A
C187        C204   1.423       .  A
C188        C203   1.420       .  A
C188        C196   1.386       .  A
C189        C201   1.405       .  A
C189        C197   1.385       .  A
C190        C204   1.411       .  A
C190        C198   1.388       .  A
C191        C199   1.385       .  A
C191        C202   1.418       .  A
C192        C200   1.388       .  A
C192        C203   1.420       .  A
C193        C194   1.376       .  A
C193        H205   1.083       .  S
C194        H206   1.081       .  S
C195        C196   1.384       .  A
C195        H207   1.082       .  S
C196        H208   1.082       .  S
C197        C198   1.370       .  A
C197        H209   1.082       .  S
C198        H210   1.083       .  S
C199        C200   1.368       .  A
C199        H211   1.081       .  S
C200        H212   1.082       .  S
C201       C1080   1.483       .  S
C202        C954   1.497       .  S
C203       C1013   1.495       .  S
C204       C1052   1.499       .  S
O215       Ni221   1.918       .  S
O215        C236   1.275       .  A
O216       Ni239   1.888       .  S
O216        C225   1.261       .  A
O217       Ni221   1.886   1_545  S
O217       Ni239   1.870       .  S
O217       Ni233   1.900       .  S
O217        H240   0.967       .  S
C218        C940   1.475       .  S
C218        O235   1.278       .  A
C218        O227   1.274   1_556  A
O219       Ni238   1.938       .  S
O219        C225   1.272       .  A
O220       Ni238   1.910       .  S
O220        C222   1.270       .  A
Ni221       O224   1.948   1_565  S
Ni221       O226   1.936   1_566  S
C222        C957   1.479       .  S
C222        O232   1.279       .  A
O223       Ni239   1.907       .  S
O223        C229   1.278       .  A
O224        C229   1.288       .  A
C225        C929   1.469       .  S
O226        C228   1.271       .  A
O227       Ni238   1.914   1_554  S
C228        C898   1.506       .  S
C228        O234   1.267       .  A
C229        C912   1.500       .  S
H230        O231   0.966   1_554  S
O231       Ni239   1.915       .  S
O231       Ni233   1.916       .  S
O231       Ni238   1.898       .  S
O232       Ni233   1.945       .  S
Ni233       O237   1.928       .  S
Ni233       O235   1.936       .  S
O234       Ni239   1.916   1_554  S
C236       C1181   1.489       .  S
C236        O237   1.281   1_565  A
N241        C246   1.355       .  A
N241        C245   1.351   1_554  A
N241        H273   1.035       .  S
N242        C249   1.357   1_556  A
N242        C250   1.354       .  A
N243        C248   1.353   1_554  A
N243        C247   1.345   1_554  A
N243        H274   1.036       .  S
N244        C251   1.347       .  A
N244        C252   1.348       .  A
C245        C253   1.389       .  A
C245        C261   1.423       .  A
C246        C262   1.423       .  A
C246        C254   1.386   1_554  A
C247        C255   1.390       .  A
C247        C264   1.415       .  A
C248        C263   1.414   1_556  A
C248        C256   1.385       .  A
C249        C261   1.422   1_554  A
C249        C257   1.385       .  A
C250        C264   1.425       .  A
C250        C258   1.389   1_556  A
C251        C259   1.383       .  A
C251        C262   1.397       .  A
C252        C260   1.385       .  A
C252        C263   1.401       .  A
C253        C254   1.383       .  A
C253        H265   1.082       .  S
C254        H266   1.082       .  S
C255        C256   1.385       .  A
C255        H267   1.082       .  S
C256        H268   1.081       .  S
C257        C258   1.372       .  A
C257        H269   1.082       .  S
C258        H270   1.082       .  S
C259        C260   1.372       .  A
C259        H271   1.083       .  S
C260        H272   1.083       .  S
C261       C1069   1.501       .  S
C262        C884   1.491       .  S
C263        C870   1.483   1_554  S
C264        C943   1.482       .  S
N275        C280   1.353       .  A
N275        C279   1.352       .  A
N275        H307   1.040       .  S
N276        C283   1.349       .  A
N276        C284   1.351       .  A
N277        C282   1.351       .  A
N277        C281   1.352       .  A
N277        H308   1.041       .  S
N278        C285   1.352       .  A
N278        C286   1.348       .  A
C279        C287   1.388       .  A
C279        C295   1.415       .  A
C280        C296   1.414       .  A
C280        C288   1.386       .  A
C281        C289   1.388       .  A
C281        C298   1.415       .  A
C282        C297   1.411       .  A
C282        C290   1.386       .  A
C283        C295   1.410       .  A
C283        C291   1.386       .  A
C284        C298   1.412       .  A
C284        C292   1.387       .  A
C285        C293   1.385       .  A
C285        C296   1.407       .  A
C286        C294   1.389       .  A
C286        C297   1.412       .  A
C287        C288   1.381       .  A
C287        H299   1.082       .  S
C288        H300   1.082       .  S
C289        C290   1.382       .  A
C289        H301   1.082       .  S
C290        H302   1.082       .  S
C291        C292   1.371       .  A
C291        H303   1.082       .  S
C292        H304   1.083       .  S
C293        C294   1.369       .  A
C293        H305   1.082       .  S
C294        H306   1.082       .  S
C295        C996   1.484       .  S
C296        C915   1.487       .  S
C297        C842   1.481       .  S
C298        C859   1.486       .  S
N309        C314   1.349       .  A
N309        C313   1.349       .  A
N309        H341   1.042       .  S
N310        C317   1.344       .  A
N310        C318   1.345       .  A
N311        C316   1.348       .  A
N311        C315   1.355       .  A
N311        H342   1.040       .  S
N312        C319   1.354       .  A
N312        C320   1.350       .  A
C313        C321   1.385       .  A
C313        C329   1.405       .  A
C314        C330   1.410       .  A
C314        C322   1.389       .  A
C315        C323   1.384       .  A
C315        C332   1.413       .  A
C316        C331   1.415       .  A
C316        C324   1.390       .  A
C317        C329   1.397       .  A
C317        C325   1.384       .  A
C318        C332   1.406       .  A
C318        C326   1.389       .  A
C319        C327   1.381       .  A
C319        C330   1.409       .  A
C320        C328   1.392       .  A
C320        C331   1.420       .  A
C321        C322   1.376       .  A
C321        H333   1.082       .  S
C322        H334   1.082       .  S
C323        C324   1.381       .  A
C323        H335   1.082       .  S
C324        H336   1.082       .  S
C325        C326   1.369       .  A
C325        H337   1.083       .  S
C326        H338   1.082       .  S
C327        C328   1.369       .  A
C327        H339   1.082       .  S
C328        H340   1.080       .  S
C329        C831   1.473       .  S
C330        C814   1.487       .  S
C331        C800   1.477       .  S
C332        C789   1.486       .  S
N343        C348   1.355       .  A
N343        C347   1.357       .  A
N343        H375   1.039       .  S
N344        C351   1.355       .  A
N344        C352   1.352       .  A
N345        C350   1.357       .  A
N345        C349   1.354       .  A
N345        H376   1.040       .  S
N346        C353   1.351       .  A
N346        C354   1.352       .  A
C347        C355   1.385       .  A
C347        C363   1.420       .  A
C348        C364   1.423       .  A
C348        C356   1.389       .  A
C349        C357   1.386       .  A
C349        C366   1.420       .  A
C350        C365   1.422       .  A
C350        C358   1.387       .  A
C351        C363   1.413       .  A
C351        C359   1.384       .  A
C352        C366   1.418       .  A
C352        C360   1.389       .  A
C353        C361   1.385       .  A
C353        C364   1.410       .  A
C354        C362   1.389       .  A
C354        C365   1.415       .  A
C355        C356   1.382       .  A
C355        H367   1.082       .  S
C356        H368   1.082       .  S
C357        C358   1.384       .  A
C357        H369   1.082       .  S
C358        H370   1.082       .  S
C359        C360   1.369       .  A
C359        H371   1.082       .  S
C360        H372   1.082       .  S
C361        C362   1.368       .  A
C361        H373   1.082       .  S
C362        H374   1.081       .  S
C363        C775   1.500       .  S
C364        C985   1.491       .  S
C365       C1027   1.496       .  S
C366        C758   1.494       .  S
N377        C382   1.352       .  A
N377        C381   1.350       .  A
N377        H409   1.041       .  S
N378        C385   1.355       .  A
N378        C386   1.351       .  A
N379        C384   1.356       .  A
N379        C383   1.351       .  A
N379        H410   1.041       .  S
N380        C387   1.348       .  A
N380        C388   1.349       .  A
C381        C389   1.386       .  A
C381        C397   1.413       .  A
C382        C398   1.417       .  A
C382        C390   1.388       .  A
C383        C391   1.388       .  A
C383        C400   1.419       .  A
C384        C399   1.418       .  A
C384        C392   1.386       .  A
C385        C397   1.413       .  A
C385        C393   1.384       .  A
C386        C400   1.418       .  A
C386        C394   1.389       .  A
C387        C395   1.385       .  A
C387        C398   1.408       .  A
C388        C396   1.387       .  A
C388        C399   1.407       .  A
C389        C390   1.382       .  A
C389        H401   1.082       .  S
C390        H402   1.082       .  S
C391        C392   1.387       .  A
C391        H403   1.082       .  S
C392        H404   1.082       .  S
C393        C394   1.373       .  A
C393        H405   1.082       .  S
C394        H406   1.083       .  S
C395        C396   1.369       .  A
C395        H407   1.082       .  S
C396        H408   1.081       .  S
C397        C730   1.492       .  S
C398        C744   1.492       .  S
C399       C1097   1.493       .  S
C400       C1041   1.491       .  S
O411       Ni417   1.941       .  S
O411        C432   1.276   1_455  A
O412       Ni435   1.905       .  S
O412        C421   1.267       .  A
O413       Ni417   1.892       .  S
O413       Ni435   1.886       .  S
O413       Ni429   1.890   1_455  S
O413        H436   0.992   1_455  S
C414       C1251   1.493       .  S
C414        O431   1.271       .  A
C414        O423   1.273       .  A
O415       Ni434   1.919       .  S
O415        C421   1.269       .  A
O416       Ni434   1.929   1_655  S
O416        C418   1.270       .  A
Ni417       O420   1.934       .  S
Ni417       O422   1.919       .  S
C418        C733   1.491       .  S
C418        O428   1.270       .  A
O419       Ni435   1.921       .  S
O419        C425   1.279       .  A
O420        C425   1.281       .  A
C421        C719   1.457       .  S
O422        C424   1.272       .  A
O423       Ni434   1.928   1_655  S
C424        C761   1.489       .  S
C424        O430   1.274       .  A
C425        C817   1.475       .  S
H426        O427   0.966       .  S
O427       Ni435   1.929       .  S
O427       Ni429   1.908   1_455  S
O427       Ni434   1.926       .  S
O428       Ni429   1.921       .  S
Ni429       O433   1.883       .  S
Ni429       O431   1.911       .  S
O430       Ni435   1.939       .  S
C432       C1167   1.473       .  S
C432        O433   1.263       .  A
O437       Ni443   1.915   1_545  S
O437        C458   1.271       .  A
O438       Ni461   1.870       .  S
O438        C447   1.254       .  A
O439       Ni443   1.906       .  S
O439       Ni461   1.867       .  S
O439       Ni455   1.903   1_565  S
O439        H462   0.967       .  S
C440        C688   1.478       .  S
C440        O457   1.271       .  A
C440        O449   1.271       .  A
O441       Ni460   1.930   1_565  S
O441        C447   1.268       .  A
O442       Ni460   1.901       .  S
O442        C444   1.271       .  A
Ni443       O446   1.951       .  S
Ni443       O448   1.941       .  S
C444        C702   1.479       .  S
C444        O454   1.282       .  A
O445       Ni461   1.915       .  S
O445        C451   1.279       .  A
O446        C451   1.284       .  A
C447        C828   1.454       .  S
O448        C450   1.271       .  A
O449       Ni460   1.916       .  S
C450       C1125   1.505   1_455  S
C450        O456   1.264       .  A
C451        C772   1.506       .  S
H452        O453   0.966       .  S
O453       Ni461   1.934   1_545  S
O453       Ni455   1.934       .  S
O453       Ni460   1.919       .  S
O454       Ni455   1.956       .  S
Ni455       O459   1.923       .  S
Ni455       O457   1.919       .  S
O456       Ni461   1.912       .  S
C458        C856   1.471       .  S
C458        O459   1.275       .  A
O463       Ni469   1.941   1_554  S
O463        C484   1.278       .  A
O464       Ni487   1.919       .  S
O464        C473   1.272       .  A
O465       Ni469   1.909   1_554  S
O465       Ni487   1.901   1_654  S
O465       Ni481   1.884       .  S
O465        H488   0.967       .  S
C466        C803   1.478       .  S
C466        O483   1.255       .  A
C466        O475   1.269       .  A
O467       Ni486   1.890   1_556  S
O467        C473   1.266       .  A
O468       Ni486   1.904       .  S
O468        C470   1.269       .  A
Ni469       O472   1.921       .  S
Ni469       O474   1.925       .  S
C470        C674   1.502       .  S
C470        O480   1.282       .  A
O471       Ni487   1.937       .  S
O471        C477   1.278   1_455  A
O472        C477   1.266       .  A
C473        C660   1.457       .  S
O474        C476   1.278       .  A
O475       Ni486   1.927       .  S
C476       C1237   1.484       .  S
C476        O482   1.277       .  A
C477        C887   1.475       .  S
H478        O479   0.969       .  S
O479       Ni487   1.936       .  S
O479       Ni481   1.907   1_456  S
O479       Ni486   1.913   1_556  S
O480       Ni481   1.958   1_455  S
Ni481       O485   1.886       .  S
Ni481       O483   1.884   1_655  S
O482       Ni487   1.933   1_655  S
C484        C747   1.492       .  S
C484        O485   1.261       .  A
N489        C494   1.353       .  A
N489        C493   1.354       .  A
N489        H521   1.036       .  S
N490        C497   1.356       .  A
N490        C498   1.353       .  A
N491        C496   1.361       .  A
N491        C495   1.360       .  A
N491        H522   1.038       .  S
N492        C499   1.357       .  A
N492        C500   1.355       .  A
C493        C501   1.386       .  A
C493        C509   1.416       .  A
C494        C510   1.418       .  A
C494        C502   1.388       .  A
C495        C503   1.387       .  A
C495        C512   1.431       .  A
C496        C511   1.432       .  A
C496        C504   1.387       .  A
C497        C509   1.415       .  A
C497        C505   1.383       .  A
C498        C512   1.422       .  A
C498        C506   1.392       .  A
C499        C507   1.384       .  A
C499        C510   1.418       .  A
C500        C508   1.389       .  A
C500        C511   1.424       .  A
C501        C502   1.377       .  A
C501        H513   1.082       .  S
C502        H514   1.082       .  S
C503        C504   1.387       .  A
C503        H515   1.082       .  S
C504        H516   1.082       .  S
C505        C506   1.366       .  A
C505        H517   1.082       .  S
C506        H518   1.080       .  S
C507        C508   1.373       .  A
C507        H519   1.082       .  S
C508        H520   1.082       .  S
C509        C646   1.495       .  S
C510        C705   1.494       .  S
C511        C971   1.514       .  S
C512        C901   1.501       .  S
O523       Ni529   1.940       .  S
O523        C544   1.281       .  A
O524       Ni547   1.936       .  S
O524        C533   1.274       .  A
O525       Ni529   1.885       .  S
O525       Ni547   1.899   1_556  S
O525       Ni541   1.897       .  S
O525        H548   0.967       .  S
C526        C618   1.492       .  S
C526        O543   1.282       .  A
C526        O535   1.279   1_556  A
O527       Ni546   1.898       .  S
O527        C533   1.262       .  A
O528       Ni546   1.910       .  S
O528        C530   1.263   1_554  A
Ni529       O532   1.920   1_546  S
Ni529       O534   1.932   1_556  S
C530        C873   1.468   1_455  S
C530        O540   1.266       .  A
O531       Ni547   1.940       .  S
O531        C537   1.287   1_545  A
O532        C537   1.275       .  A
C533        C635   1.472       .  S
O534        C536   1.274       .  A
O535       Ni546   1.906       .  S
C536        C649   1.477       .  S
C536        O542   1.271       .  A
C537        C786   1.489       .  S
H538        O539   0.966       .  S
O539       Ni547   1.936       .  S
O539       Ni541   1.883   1_554  S
O539       Ni546   1.891       .  S
O540       Ni541   1.927       .  S
Ni541       O545   1.887       .  S
Ni541       O543   1.945       .  S
O542       Ni547   1.934       .  S
C544        C845   1.483       .  S
C544        O545   1.266       .  A
N549        C554   1.353       .  A
N549        C553   1.356       .  A
N549        H581   1.038       .  S
N550        C557   1.351       .  A
N550        C558   1.349       .  A
N551        C556   1.354       .  A
N551        C555   1.350       .  A
N551        H582   1.042       .  S
N552        C559   1.351       .  A
N552        C560   1.352       .  A
C553        C561   1.386       .  A
C553        C569   1.419       .  A
C554        C570   1.421       .  A
C554        C562   1.389       .  A
C555        C563   1.389       .  A
C555        C572   1.414       .  A
C556        C571   1.409       .  A
C556        C564   1.384       .  A
C557        C569   1.411       .  A
C557        C565   1.385       .  A
C558        C572   1.412       .  A
C558        C566   1.388       .  A
C559        C567   1.388       .  A
C559        C570   1.413       .  A
C560        C568   1.386       .  A
C560        C571   1.412       .  A
C561        C562   1.381       .  A
C561        H573   1.082       .  S
C562        H574   1.082       .  S
C563        C564   1.378       .  A
C563        H575   1.082       .  S
C564        H576   1.082       .  S
C565        C566   1.372       .  A
C565        H577   1.082       .  S
C566        H578   1.083       .  S
C567        C568   1.369       .  A
C567        H579   1.082       .  S
C568        H580   1.083       .  S
C569        C677   1.493       .  S
C570        C632   1.487       .  S
C571        C691   1.488       .  S
C572        C716   1.483       .  S
N583        C588   1.354       .  A
N583        C587   1.353       .  A
N583        H615   1.036       .  S
N584        C591   1.352       .  A
N584        C592   1.351       .  A
N585        C590   1.354       .  A
N585        C589   1.358       .  A
N585        H616   1.038       .  S
N586        C593   1.351       .  A
N586        C594   1.348       .  A
C587        C595   1.390       .  A
C587        C603   1.421       .  A
C588        C604   1.410       .  A
C588        C596   1.383       .  A
C589        C597   1.385       .  A
C589        C606   1.415       .  A
C590        C605   1.419       .  A
C590        C598   1.388       .  A
C591        C603   1.417       .  A
C591        C599   1.386       .  A
C592        C606   1.419       .  A
C592        C600   1.387       .  A
C593        C601   1.381       .  A
C593        C604   1.407       .  A
C594        C602   1.391       .  A
C594        C605   1.412       .  A
C595        C596   1.372       .  A
C595        H607   1.081       .  S
C596        H608   1.081       .  S
C597        C598   1.371       .  A
C597        H609   1.082       .  S
C598        H610   1.083       .  S
C599        C600   1.367       .  A
C599        H611   1.082       .  S
C600        H612   1.081       .  S
C601        C602   1.366       .  A
C601        H613   1.083       .  S
C602        H614   1.081       .  S
C603        C926   1.488       .  S
C604        C621   1.487       .  S
C605        C663   1.480       .  S
C606       C1108   1.494       .  S
C617        C618   1.407       .  A
C617        C622   1.394       .  A
C617        H624   1.084   1_556  S
C618        C619   1.422       .  A
C619        C620   1.406       .  A
C619        N626   1.431       .  S
C620        C621   1.400       .  A
C620        H625   1.084       .  S
C621        C622   1.406       .  A
C622        N623   1.429       .  S
N623        O627   1.262       .  A
N623        O628   1.262   1_556  A
N626        O630   1.262       .  A
N626        O629   1.262       .  A
C631        C632   1.402       .  A
C631        C636   1.401       .  A
C631        H638   1.084       .  S
C632        C633   1.409       .  A
C633        C634   1.401       .  A
C633        N640   1.429   1_455  S
C634        C635   1.404       .  A
C634        H639   1.084   1_455  S
C635        C636   1.411       .  A
C636        N637   1.429       .  S
N637        O641   1.262       .  A
N637        O642   1.262       .  A
N640        O644   1.262       .  A
N640        O643   1.262       .  A
C645        C646   1.401       .  A
C645        C650   1.401       .  A
C645        H652   1.084   1_545  S
C646        C647   1.412       .  A
C647        C648   1.407       .  A
C647        N654   1.428       .  S
C648        C649   1.403       .  A
C648        H653   1.084       .  S
C649        C650   1.411       .  A
C650        N651   1.430   1_545  S
N651        O655   1.262       .  A
N651        O656   1.262       .  A
N654        O658   1.262       .  A
N654        O657   1.262       .  A
C659        C660   1.397       .  A
C659        C664   1.382       .  A
C659        H666   1.083       .  S
C660        C661   1.407       .  A
C661        C662   1.406       .  A
C661        N668   1.428       .  S
C662        C663   1.406       .  A
C662        H667   1.083       .  S
C663        C664   1.408       .  A
C664        N665   1.431       .  S
N665        O669   1.262   1_556  A
N665        O670   1.261       .  A
N668        O672   1.262       .  A
N668        O671   1.262       .  A
C673        C674   1.407       .  A
C673        C678   1.403       .  A
C673        H680   1.079       .  S
C674        C675   1.422       .  A
C675        C676   1.405       .  A
C675        N682   1.428       .  S
C676        C677   1.399       .  A
C676        H681   1.084       .  S
C677        C678   1.408       .  A
C678        N679   1.429       .  S
N679        O683   1.262   1_455  A
N679        O684   1.262       .  A
N682        O686   1.262       .  A
N682        O685   1.262       .  A
C687        C688   1.405       .  A
C687        C692   1.404       .  A
C687        H694   1.084       .  S
C688        C689   1.411       .  A
C689        C690   1.399       .  A
C689        N696   1.429   1_455  S
C690        C691   1.402       .  A
C690        H695   1.084       .  S
C691        C692   1.408       .  A
C692        N693   1.428       .  S
N693        O697   1.262       .  A
N693        O698   1.262       .  A
N696        O700   1.262       .  A
N696        O699   1.262       .  A
C701        C702   1.404       .  A
C701        C706   1.408       .  A
C701        H708   1.084       .  S
C702        C703   1.412       .  A
C703        C704   1.401       .  A
C703        N710   1.429   1_545  S
C704        C705   1.400       .  A
C704        H709   1.084   1_545  S
C705        C706   1.411       .  A
C706        N707   1.428       .  S
N707        O711   1.261       .  A
N707        O712   1.262       .  A
N710        O714   1.262       .  A
N710        O713   1.262       .  A
C715        C716   1.402       .  A
C715        C720   1.390       .  A
C715        H722   1.084       .  S
C716        C717   1.411       .  A
C717        C718   1.402       .  A
C717        N724   1.429       .  S
C718        C719   1.401       .  A
C718        H723   1.084       .  S
C719        C720   1.403       .  A
C720        N721   1.428       .  S
N721        O725   1.261       .  A
N721        O726   1.262   1_455  A
N724        O728   1.262       .  A
N724        O727   1.261       .  A
C729        C730   1.396       .  A
C729        C734   1.398       .  A
C729        H736   1.084       .  S
C730        C731   1.411       .  A
C731        C732   1.411       .  A
C731        N738   1.429       .  S
C732        C733   1.408       .  A
C732        H737   1.083       .  S
C733        C734   1.415       .  A
C734        N735   1.429       .  S
N735        O739   1.262       .  A
N735        O740   1.261       .  A
N738        O742   1.262       .  A
N738        O741   1.262       .  A
C743        C744   1.399       .  A
C743        C748   1.402       .  A
C743        H750   1.084       .  S
C744        C745   1.413       .  A
C745        C746   1.397       .  A
C745        N752   1.432       .  S
C746        C747   1.405       .  A
C746        H751   1.083       .  S
C747        C748   1.426       .  A
C748        N749   1.433       .  S
N749        O753   1.262       .  A
N749        O754   1.261       .  A
N752        O756   1.262       .  A
N752        O755   1.263       .  A
C757        C758   1.406       .  A
C757        C762   1.404       .  A
C757        H764   1.084       .  S
C758        C759   1.408       .  A
C759        C760   1.403       .  A
C759        N766   1.429       .  S
C760        C761   1.409       .  A
C760        H765   1.084       .  S
C761        C762   1.411       .  A
C762        N763   1.429       .  S
N763        O767   1.262       .  A
N763        O768   1.262       .  A
N766        O770   1.262       .  A
N766        O769   1.262       .  A
C771        C772   1.413       .  A
C771        C776   1.404       .  A
C771        H778   1.083       .  S
C772        C773   1.418       .  A
C773        C774   1.411       .  A
C773        N780   1.428       .  S
C774        C775   1.406       .  A
C774        H779   1.084       .  S
C775        C776   1.406       .  A
C776        N777   1.430       .  S
N777        O781   1.262       .  A
N777        O782   1.262       .  A
N780        O784   1.262       .  A
N780        O783   1.262       .  A
C785        C786   1.404       .  A
C785        C790   1.408       .  A
C785        H792   1.083       .  S
C786        C787   1.424       .  A
C787        C788   1.393       .  A
C787        N794   1.431       .  S
C788        C789   1.391       .  A
C788        H793   1.084       .  S
C789        C790   1.415       .  A
C790        N791   1.432   1_455  S
N791        O795   1.262       .  A
N791        O796   1.262       .  A
N794        O798   1.262   1_554  A
N794        O797   1.262       .  A
C799        C800   1.398       .  A
C799        C804   1.397       .  A
C799        H806   1.084       .  S
C800        C801   1.406       .  A
C801        C802   1.397       .  A
C801        N808   1.430       .  S
C802        C803   1.405       .  A
C802        H807   1.084       .  S
C803        C804   1.418       .  A
C804        N805   1.432   1_455  S
N805        O809   1.261       .  A
N805        O810   1.262       .  A
N808        O812   1.262       .  A
N808        O811   1.262       .  A
C813        C814   1.401       .  A
C813        C818   1.399       .  A
C813        H820   1.084       .  S
C814        C815   1.408       .  A
C815        C816   1.399       .  A
C815        N822   1.429       .  S
C816        C817   1.404       .  A
C816        H821   1.084       .  S
C817        C818   1.412       .  A
C818        N819   1.426       .  S
N819        O823   1.261   1_455  A
N819        O824   1.261       .  A
N822        O826   1.261       .  A
N822        O825   1.262       .  A
C827        C828   1.402       .  A
C827        C832   1.391       .  A
C827        H834   1.084       .  S
C828        C829   1.402       .  A
C829        C830   1.395       .  A
C829        N836   1.429       .  S
C830        C831   1.406       .  A
C830        H835   1.084       .  S
C831        C832   1.404       .  A
C832        N833   1.429       .  S
N833        O837   1.262       .  A
N833        O838   1.262       .  A
N836        O840   1.262   1_455  A
N836        O839   1.262       .  A
C841        C842   1.400       .  A
C841        C846   1.401       .  A
C841        H848   1.084       .  S
C842        C843   1.409       .  A
C843        C844   1.394       .  A
C843        N850   1.429   1_545  S
C844        C845   1.403       .  A
C844        H849   1.084   1_545  S
C845        C846   1.417       .  A
C846        N847   1.430       .  S
N847        O851   1.261       .  A
N847        O852   1.262       .  A
N850        O854   1.261       .  A
N850        O853   1.262       .  A
C855        C856   1.404       .  A
C855        C860   1.407       .  A
C855        H862   1.083       .  S
C856        C857   1.408       .  A
C857        C858   1.396       .  A
C857        N864   1.429   1_545  S
C858        C859   1.400       .  A
C858        H863   1.084       .  S
C859        C860   1.409       .  A
C860        N861   1.428       .  S
N861        O865   1.262       .  A
N861        O866   1.262       .  A
N864        O868   1.261       .  A
N864        O867   1.262       .  A
C869        C870   1.406       .  A
C869        C874   1.400       .  A
C869        H876   1.083       .  S
C870        C871   1.411   1_556  A
C871        C872   1.400   1_554  A
C871        N878   1.430       .  S
C872        C873   1.402       .  A
C872        H877   1.085   1_556  S
C873        C874   1.406       .  A
C874        N875   1.429       .  S
N875        O879   1.262       .  A
N875        O880   1.262       .  A
N878        O882   1.262       .  A
N878        O881   1.262       .  A
C883        C884   1.403   1_556  A
C883        C888   1.401       .  A
C883        H890   1.084       .  S
C884        C885   1.414       .  A
C885        C886   1.402       .  A
C885        N892   1.429       .  S
C886        C887   1.401   1_554  A
C886        H891   1.084       .  S
C887        C888   1.413       .  A
C888        N889   1.430       .  S
N889        O893   1.262       .  A
N889        O894   1.262       .  A
N892        O896   1.262       .  A
N892        O895   1.262       .  A
C897        C898   1.412       .  A
C897        C902   1.401       .  A
C897        H904   1.083       .  S
C898        C899   1.417   1_545  A
C899        C900   1.413       .  A
C899        N906   1.429       .  S
C900        C901   1.410   1_565  A
C900        H905   1.084       .  S
C901        C902   1.406       .  A
C902        N903   1.429       .  S
N903        O907   1.262       .  A
N903        O908   1.262       .  A
N906        O910   1.262       .  A
N906        O909   1.262       .  A
C911        C912   1.411       .  A
C911        C916   1.404       .  A
C911        H918   1.083   1_545  S
C912        C913   1.423       .  A
C913        C914   1.402       .  A
C913        N920   1.428       .  S
C914        C915   1.397       .  A
C914        H919   1.084       .  S
C915        C916   1.406       .  A
C916        N917   1.428   1_545  S
N917        O921   1.262       .  A
N917        O922   1.261       .  A
N920        O924   1.261       .  A
N920        O923   1.262       .  A
C925        C926   1.403       .  A
C925        C930   1.397       .  A
C925        H932   1.084       .  S
C926        C927   1.411   1_556  A
C927        C928   1.398       .  A
C927        N934   1.431       .  S
C928        C929   1.403   1_554  A
C928        H933   1.084       .  S
C929        C930   1.409       .  A
C930        N931   1.429       .  S
N931        O935   1.261       .  A
N931        O936   1.262       .  A
N934        O938   1.262       .  A
N934        O937   1.262       .  A
C939        C940   1.407       .  A
C939        C944   1.404       .  A
C939        H946   1.083       .  S
C940        C941   1.409   1_556  A
C941        C942   1.399       .  A
C941        N948   1.428       .  S
C942        C943   1.401   1_554  A
C942        H947   1.084       .  S
C943        C944   1.407       .  A
C944        N945   1.431       .  S
N945        O949   1.261       .  A
N945        O950   1.263       .  A
N948        O952   1.262       .  A
N948        O951   1.262       .  A
C953        C954   1.402       .  A
C953        C958   1.400       .  A
C953        H960   1.084       .  S
C954        C955   1.415       .  A
C955        C956   1.406       .  A
C955        N962   1.432       .  S
C956        C957   1.403       .  A
C956        H961   1.084       .  S
C957        C958   1.410       .  A
C958        N959   1.427       .  S
N959        O963   1.261       .  A
N959        O964   1.262       .  A
N962        O966   1.262       .  A
N962        O965   1.262       .  A
C967        C968   1.406       .  A
C967        C972   1.406       .  A
C967        H974   1.084       .  S
C968        C969   1.419       .  A
C969        C970   1.413       .  A
C969        N976   1.429   1_545  S
C970        C971   1.406       .  A
C970        H975   1.083   1_545  S
C971        C972   1.417       .  A
C972        N973   1.430       .  S
N973        O977   1.262       .  A
N973        O978   1.262       .  A
N976        O980   1.262       .  A
N976        O979   1.261       .  A
C981        C982   1.409       .  A
C981        C986   1.399       .  A
C981        H988   1.084       .  S
C982        C983   1.410       .  A
C983        C984   1.405       .  A
C983        N990   1.429       .  S
C984        C985   1.406       .  A
C984        H989   1.084       .  S
C985        C986   1.404       .  A
C986        N987   1.429       .  S
N987        O991   1.262       .  A
N987        O992   1.262       .  A
N990        O994   1.262       .  A
N990        O993   1.262       .  A
C995        C996   1.399       .  A
C995       C1000   1.403       .  A
C995       H1002   1.084       .  S
C996        C997   1.409       .  A
C997        C998   1.399       .  A
C997       N1004   1.430   1_545  S
C998        C999   1.403       .  A
C998       H1003   1.084   1_545  S
C999       C1000   1.413       .  A
C1000      N1001   1.428       .  S
N1001      O1005   1.262       .  A
N1001      O1006   1.262       .  A
N1004      O1008   1.262       .  A
N1004      O1007   1.262       .  A
C1009      C1010   1.411       .  A
C1009      C1014   1.402       .  A
C1009      H1016   1.083       .  S
C1010      C1011   1.417       .  A
C1011      C1012   1.405       .  A
C1011      N1018   1.428       .  S
C1012      C1013   1.405       .  A
C1012      H1017   1.084       .  S
C1013      C1014   1.406       .  A
C1014      N1015   1.429       .  S
N1015      O1019   1.262       .  A
N1015      O1020   1.262       .  A
N1018      O1022   1.262       .  A
N1018      O1021   1.262       .  A
C1023      C1024   1.408       .  A
C1023      C1028   1.394       .  A
C1023      H1030   1.084       .  S
C1024      C1025   1.410       .  A
C1025      C1026   1.414       .  A
C1025      N1032   1.427       .  S
C1026      C1027   1.412       .  A
C1026      H1031   1.083       .  S
C1027      C1028   1.406       .  A
C1028      N1029   1.430       .  S
N1029      O1033   1.262       .  A
N1029      O1034   1.262       .  A
N1032      O1036   1.262       .  A
N1032      O1035   1.262       .  A
C1037      C1038   1.409       .  A
C1037      C1042   1.407       .  A
C1037      H1044   1.083       .  S
C1038      C1039   1.419       .  A
C1039      C1040   1.396       .  A
C1039      N1046   1.430       .  S
C1040      C1041   1.400       .  A
C1040      H1045   1.085       .  S
C1041      C1042   1.409       .  A
C1042      N1043   1.428       .  S
N1043      O1047   1.262       .  A
N1043      O1048   1.262       .  A
N1046      O1050   1.262       .  A
N1046      O1049   1.262       .  A
C1051      C1052   1.408       .  A
C1051      C1056   1.398       .  A
C1051      H1058   1.084       .  S
C1052      C1053   1.411       .  A
C1053      C1054   1.407       .  A
C1053      N1060   1.429       .  S
C1054      C1055   1.407       .  A
C1054      H1059   1.084       .  S
C1055      C1056   1.407       .  A
C1056      N1057   1.430       .  S
N1057      O1061   1.262       .  A
N1057      O1062   1.261       .  A
N1060      O1064   1.262       .  A
N1060      O1063   1.262       .  A
C1065      C1066   1.404   1_554  A
C1065      C1070   1.401       .  A
C1065      H1072   1.084       .  S
C1066      C1067   1.412       .  A
C1067      C1068   1.407       .  A
C1067      N1074   1.429       .  S
C1068      C1069   1.409       .  A
C1068      H1073   1.084       .  S
C1069      C1070   1.411   1_556  A
C1070      N1071   1.430       .  S
N1071      O1075   1.262       .  A
N1071      O1076   1.262       .  A
N1074      O1078   1.262       .  A
N1074      O1077   1.262       .  A
C1079      C1080   1.395       .  A
C1079      C1084   1.395       .  A
C1079      H1086   1.084       .  S
C1080      C1081   1.410       .  A
C1081      C1082   1.404       .  A
C1081      N1088   1.429       .  S
C1082      C1083   1.404       .  A
C1082      H1087   1.084       .  S
C1083      C1084   1.418       .  A
C1084      N1085   1.429       .  S
N1085      O1089   1.261       .  A
N1085      O1090   1.262       .  A
N1088      O1092   1.262       .  A
N1088      O1091   1.262       .  A
C1093      C1094   1.411       .  A
C1093      C1098   1.402       .  A
C1093      H1100   1.083       .  S
C1094      C1095   1.418       .  A
C1095      C1096   1.408       .  A
C1095      N1102   1.428       .  S
C1096      C1097   1.404       .  A
C1096      H1101   1.084       .  S
C1097      C1098   1.408       .  A
C1098      N1099   1.429       .  S
N1099      O1103   1.262       .  A
N1099      O1104   1.262       .  A
N1102      O1106   1.262       .  A
N1102      O1105   1.262       .  A
C1107      C1108   1.401       .  A
C1107      C1112   1.402       .  A
C1107      H1114   1.084       .  S
C1108      C1109   1.411       .  A
C1109      C1110   1.400   1_556  A
C1109      N1116   1.430   1_556  S
C1110      C1111   1.404   1_554  A
C1110      H1115   1.084       .  S
C1111      C1112   1.415       .  A
C1112      N1113   1.429       .  S
N1113      O1117   1.261       .  A
N1113      O1118   1.261       .  A
N1116      O1120   1.262       .  A
N1116      O1119   1.262       .  A
C1121      C1122   1.408       .  A
C1121      C1126   1.411       .  A
C1121      H1128   1.084       .  S
C1122      C1123   1.407       .  A
C1123      C1124   1.405       .  A
C1123      N1130   1.430       .  S
C1124      C1125   1.414       .  A
C1124      H1129   1.084       .  S
C1125      C1126   1.414       .  A
C1126      N1127   1.427       .  S
N1127      O1131   1.262       .  A
N1127      O1132   1.262       .  A
N1130      O1134   1.262       .  A
N1130      O1133   1.262       .  A
C1135      C1136   1.403       .  A
C1135      C1140   1.399       .  A
C1135      H1142   1.084       .  S
C1136      C1137   1.411       .  A
C1137      C1138   1.411       .  A
C1137      N1144   1.428       .  S
C1138      C1139   1.406       .  A
C1138      H1143   1.084       .  S
C1139      C1140   1.411       .  A
C1140      N1141   1.431       .  S
N1141      O1145   1.262       .  A
N1141      O1146   1.262       .  A
N1144      O1148   1.262       .  A
N1144      O1147   1.261       .  A
C1149      C1150   1.405       .  A
C1149      C1154   1.409       .  A
C1149      H1156   1.084       .  S
C1150      C1151   1.407       .  A
C1151      C1152   1.395       .  A
C1151      N1158   1.431       .  S
C1152      C1153   1.411       .  A
C1152      H1157   1.083       .  S
C1153      C1154   1.417       .  A
C1154      N1155   1.428       .  S
N1155      O1159   1.261       .  A
N1155      O1160   1.262       .  A
N1158      O1162   1.262       .  A
N1158      O1161   1.262       .  A
C1163      C1164   1.398       .  A
C1163      C1168   1.393       .  A
C1163      H1170   1.084       .  S
C1164      C1165   1.415       .  A
C1165      C1166   1.404       .  A
C1165      N1172   1.430       .  S
C1166      C1167   1.402       .  A
C1166      H1171   1.084       .  S
C1167      C1168   1.414       .  A
C1168      N1169   1.431       .  S
N1169      O1173   1.262       .  A
N1169      O1174   1.262       .  A
N1172      O1176   1.262       .  A
N1172      O1175   1.262       .  A
C1177      C1178   1.400       .  A
C1177      C1182   1.400       .  A
C1177      H1184   1.084       .  S
C1178      C1179   1.417       .  A
C1179      C1180   1.407       .  A
C1179      N1186   1.430       .  S
C1180      C1181   1.403       .  A
C1180      H1185   1.084       .  S
C1181      C1182   1.418       .  A
C1182      N1183   1.429       .  S
N1183      O1187   1.262       .  A
N1183      O1188   1.262       .  A
N1186      O1190   1.261       .  A
N1186      O1189   1.262       .  A
C1191      C1192   1.414       .  A
C1191      C1196   1.413       .  A
C1191      H1198   1.084       .  S
C1192      C1193   1.409       .  A
C1193      C1194   1.406       .  A
C1193      N1200   1.430       .  S
C1194      C1195   1.415       .  A
C1194      H1199   1.083       .  S
C1195      C1196   1.413       .  A
C1196      N1197   1.428       .  S
N1197      O1201   1.261       .  A
N1197      O1202   1.262       .  A
N1200      O1204   1.262       .  A
N1200      O1203   1.262       .  A
C1205      C1206   1.406       .  A
C1205      C1210   1.413       .  A
C1205      H1212   1.084       .  S
C1206      C1207   1.407       .  A
C1207      C1208   1.405       .  A
C1207      N1214   1.428       .  S
C1208      C1209   1.413       .  A
C1208      H1213   1.083       .  S
C1209      C1210   1.420       .  A
C1210      N1211   1.429       .  S
N1211      O1215   1.262       .  A
N1211      O1216   1.262       .  A
N1214      O1218   1.262       .  A
N1214      O1217   1.262       .  A
C1219      C1220   1.402       .  A
C1219      C1224   1.400       .  A
C1219      H1226   1.084       .  S
C1220      C1221   1.406       .  A
C1221      C1222   1.401       .  A
C1221      N1228   1.429       .  S
C1222      C1223   1.405       .  A
C1222      H1227   1.082       .  S
C1223      C1224   1.408       .  A
C1224      N1225   1.428       .  S
N1225      O1229   1.262       .  A
N1225      O1230   1.262       .  A
N1228      O1232   1.262       .  A
N1228      O1231   1.262       .  A
C1233      C1234   1.406       .  A
C1233      C1238   1.400       .  A
C1233      H1240   1.084       .  S
C1234      C1235   1.404       .  A
C1235      C1236   1.398       .  A
C1235      N1242   1.429       .  S
C1236      C1237   1.411       .  A
C1236      H1241   1.084   1_655  S
C1237      C1238   1.411       .  A
C1238      N1239   1.429       .  S
N1239      O1243   1.262       .  A
N1239      O1244   1.262       .  A
N1242      O1246   1.262       .  A
N1242      O1245   1.262   1_655  A
C1247      C1248   1.401       .  A
C1247      C1252   1.404       .  A
C1247      H1254   1.084       .  S
C1248      C1249   1.408       .  A
C1249      C1250   1.398       .  A
C1249      N1256   1.430       .  S
C1250      C1251   1.409       .  A
C1250      H1255   1.084       .  S
C1251      C1252   1.418       .  A
C1252      N1253   1.428       .  S
N1253      O1257   1.262   1_655  A
N1253      O1258   1.262       .  A
N1256      O1260   1.262       .  A
N1256      O1259   1.262       .  A
C1261      C1262   1.406       .  A
C1261      C1266   1.404       .  A
C1261      H1268   1.084       .  S
C1262      C1263   1.404       .  A
C1263      C1264   1.399       .  A
C1263      N1270   1.429       .  S
C1264      C1265   1.410       .  A
C1264      H1269   1.084       .  S
C1265      C1266   1.410       .  A
C1266      N1267   1.429       .  S
N1267      O1271   1.262       .  A
N1267      O1272   1.262       .  A
N1270      O1274   1.262       .  A
N1270      O1273   1.262       .  A
C1275      C1276   1.400       .  A
C1275      C1280   1.398       .  A
C1275      H1282   1.084       .  S
C1276      C1277   1.408       .  A
C1277      C1278   1.401       .  A
C1277      N1284   1.430       .  S
C1278      C1279   1.404       .  A
C1278      H1283   1.084       .  S
C1279      C1280   1.411       .  A
C1280      N1281   1.428       .  S
N1281      O1285   1.261       .  A
N1281      O1286   1.262       .  A
N1284      O1288   1.262       .  A
N1284      O1287   1.262       .  A
