geometry optimzed in LAMMPS
_audit_creation_date              2020-11-30 
_audit_creation_method            'lammps2cif' 
_symmetry_space_group_name_H-M    'P1' 
_symmetry_Int_Tables_number       1 
_symmetry_cell_setting            triclinic 
loop_ 
_symmetry_equiv_pos_as_xyz 
  x,y,z 
_cell_length_a                    48.30417841 
_cell_length_b                    48.582354918756565 
_cell_length_c                    48.060358584516834 
_cell_angle_alpha                 90.06208309510569 
_cell_angle_beta                  89.86530366539102 
_cell_angle_gamma                 90.0782077320187 
loop_ 
_atom_site_label 
_atom_site_type_symbol 
_atom_site_fract_x 
_atom_site_fract_y 
_atom_site_fract_z 
_atom_site_charge 
N1          N  0.76369357  0.49755039  0.74902150    -0.35700
N2          N  0.80294099  0.49774911  0.70460453    -0.56300
N3          N  0.84859279  0.50025658  0.74552550    -0.35700
N4          N  0.80786579  0.49696027  0.78958845    -0.56300
C5          C  0.74822692  0.48880096  0.72730941     0.27900
C6          C  0.75090311  0.48880547  0.77239923     0.27900
C7          C  0.86227451  0.49400326  0.72179422     0.27900
C8          C  0.86466384  0.49215740  0.76712863     0.27900
C9          C  0.77962469  0.50318114  0.68993071     0.36500
C10         C  0.82453530  0.50490825  0.68825550     0.36500
C11         C  0.78623126  0.50224726  0.80658231     0.36500
C12         C  0.83089985  0.50221436  0.80445005     0.36500
C13         C  0.72595935  0.47349768  0.73704013    -0.21000
C14         C  0.72747180  0.47379433  0.76557468    -0.21000
C15         C  0.88760344  0.48221758  0.72836279    -0.21000
C16         C  0.88908488  0.48103505  0.75702111    -0.21000
C17         C  0.78642136  0.51417457  0.66424238    -0.22100
C18         C  0.81487184  0.51516538  0.66313111    -0.22100
C19         C  0.79550353  0.51142357  0.83223204    -0.22100
C20         C  0.82390501  0.51109317  0.83097641    -0.22100
C21         C  0.75263698  0.49661428  0.69933001    -0.17400
C22         C  0.75859623  0.49622945  0.79961374    -0.17400
C23         C  0.85781326  0.49523206  0.79559640    -0.17400
C24         C  0.85266303  0.49950816  0.69453739    -0.17400
H25         H  0.71002396  0.46347026  0.72490225     0.15500
H26         H  0.71289402  0.46423060  0.77972416     0.15500
H27         H  0.90329928  0.47495916  0.71403804     0.15500
H28         H  0.90612834  0.47286306  0.76901693     0.15500
H29         H  0.77253592  0.52070640  0.64792604     0.13800
H30         H  0.82706840  0.52240989  0.64568786     0.13800
H31         H  0.78325992  0.51707819  0.85020852     0.13800
H32         H  0.83785112  0.51619887  0.84781625     0.13800
H33         H  0.77978597  0.51185786  0.74817886     0.27000
H34         H  0.83023004  0.51138920  0.74675354     0.27000
N35         N  0.49915661  0.75000348  0.75700873    -0.35700
N36         N  0.49944479  0.70631884  0.79702166    -0.56300
N37         N  0.50379958  0.74633750  0.84285406    -0.35700
N38         N  0.50040832  0.78994238  0.80145233    -0.56300
C39         C  0.48962124  0.72837102  0.74210912     0.27900
C40         C  0.48995982  0.77302611  0.74437871     0.27900
C41         C  0.49646180  0.72308006  0.85653969     0.27900
C42         C  0.49633164  0.76803424  0.85893613     0.27900
C43         C  0.50545271  0.69209575  0.77352874     0.36500
C44         C  0.50751366  0.69041189  0.81851101     0.36500
C45         C  0.50437911  0.80693377  0.77951602     0.36500
C46         C  0.50606353  0.80482428  0.82447895     0.36500
C47         C  0.47336714  0.73778442  0.72035382    -0.21000
C48         C  0.47385352  0.76604704  0.72160524    -0.21000
C49         C  0.48453858  0.73008464  0.88187224    -0.21000
C50         C  0.48458047  0.75848198  0.88342651    -0.21000
C51         C  0.51801596  0.66733730  0.78010335    -0.22100
C52         C  0.51917842  0.66620994  0.80863141    -0.22100
C53         C  0.51306464  0.83259069  0.78853806    -0.22100
C54         C  0.51397508  0.83131273  0.81708193    -0.22100
C55         C  0.49754395  0.70075888  0.74667220    -0.17400
C56         C  0.49752180  0.80004181  0.75189270    -0.17400
C57         C  0.50014010  0.79609037  0.85189349    -0.17400
C58         C  0.50105304  0.69594101  0.84665651    -0.17400
H59         H  0.46243256  0.72564095  0.70501784     0.15500
H60         H  0.46354893  0.77989147  0.70737217     0.15500
H61         H  0.47628076  0.71630643  0.89749250     0.15500
H62         H  0.47652555  0.77068619  0.90046117     0.15500
H63         H  0.52548573  0.65161634  0.76604202     0.13800
H64         H  0.52738321  0.64934012  0.82076001     0.13800
H65         H  0.51740961  0.85057948  0.77600654     0.13800
H66         H  0.51906410  0.84818840  0.83088799     0.13800
H67         H  0.51405044  0.74922668  0.77266496     0.27000
H68         H  0.51504151  0.74724797  0.82435478     0.27000
N69         N  0.75058376  0.76140650  0.52582662    -0.35700
N70         N  0.79231605  0.80378011  0.52626644    -0.56300
N71         N  0.75037849  0.84723994  0.52293959    -0.35700
N72         N  0.70845068  0.80315796  0.51919008    -0.56300
C73         C  0.77372194  0.74710564  0.51926388     0.27900
C74         C  0.72878199  0.74701120  0.51576086     0.27900
C75         C  0.77350492  0.86140346  0.51554599     0.27900
C76         C  0.72803210  0.86123370  0.51337975     0.27900
C77         C  0.80808013  0.78184696  0.53339054     0.36500
C78         C  0.80778821  0.82646728  0.53111657     0.36500
C79         C  0.69275512  0.78102961  0.52607022     0.36500
C80         C  0.69301291  0.82561448  0.52493674     0.36500
C81         C  0.76655365  0.72371311  0.50434674    -0.21000
C82         C  0.73819737  0.72362611  0.50218584    -0.21000
C83         C  0.76569851  0.88516183  0.50163079    -0.21000
C84         C  0.73700539  0.88509182  0.50033131    -0.21000
C85         C  0.83338837  0.79062583  0.54355000    -0.22100
C86         C  0.83326215  0.81888079  0.54199605    -0.22100
C87         C  0.66761025  0.78946796  0.53696957    -0.22100
C88         C  0.66769068  0.81770316  0.53607421    -0.22100
C89         C  0.80091085  0.75423601  0.52751570    -0.17400
C90         C  0.70069143  0.75356909  0.52064563    -0.17400
C91         C  0.69999026  0.85271475  0.51673557    -0.17400
C92         C  0.80122578  0.85314972  0.52128397    -0.17400
H93         H  0.78027229  0.70836298  0.49563193     0.15500
H94         H  0.72597813  0.70814779  0.49162912     0.15500
H95         H  0.77923094  0.90080149  0.49309262     0.15500
H96         H  0.72429421  0.90061621  0.49053674     0.15500
H97         H  0.85052548  0.77802052  0.55036736     0.13800
H98         H  0.85038618  0.83231325  0.54721291     0.13800
H99         H  0.65094006  0.77680575  0.54486139     0.13800
H100        H  0.65089355  0.83094456  0.54265078     0.13800
H101        H  0.74948482  0.77832224  0.53916703     0.27000
H102        H  0.74970995  0.82966496  0.53531009     0.27000
O103        O  0.60706268  0.47760004  0.94009533    -0.77600
C104        C  0.56379269  0.49144427  0.02224669     0.83400
O105        O  0.55806762  0.39639314  0.97482429    -0.78700
O106        O  0.47981438  0.46277297  0.98401245    -0.80200
O107        O  0.51778395  0.51131453  0.91503533    -0.80000
O108        O  0.58098823  0.48676470  0.90306370    -0.78600
Zn109      Zn  0.58077168  0.46232460  0.96866143     1.55700
O110        O  0.51008382  0.52142691  0.95978468    -0.80000
Cd111      Cd  0.54151937  0.47613134  0.91631319     1.59700
Cd112      Cd  0.53023494  0.42261656  0.95542253     1.59600
O113        O  0.52774678  0.44683938  0.88813140    -0.80000
O114        O  0.54315952  0.46135318  0.95499015    -1.90500
Cd115      Cd  0.51784766  0.48355960  0.97892909     1.59900
O116        O  0.52815356  0.40925079  0.91485615    -0.80000
O117        O  0.53790072  0.49051805  0.01683018    -0.78600
C118        C  0.58382493  0.40021343  0.97903274     0.83900
C119        C  0.60447208  0.48556581  0.91503217     0.83600
O120        O  0.58216723  0.48378370  0.00474229    -0.77600
C121        C  0.50939608  0.52769104  0.93400000     0.84400
O122        O  0.59493440  0.42383884  0.97628532    -0.77700
C123        C  0.52635370  0.42082518  0.89117254     0.84500
C124        C  0.47346352  0.43736431  0.98112462     0.84800
O125        O  0.49090193  0.41960247  0.97242761    -0.80100
O126        O  0.55646375  0.60279074  0.52327472    -0.77600
C127        C  0.47386280  0.56032427  0.50538611     0.83400
O128        O  0.51790409  0.55127120  0.60311785    -0.78700
O129        O  0.51075729  0.47572508  0.53068332    -0.80200
O130        O  0.58119766  0.52339118  0.48668650    -0.80000
O131        O  0.59408985  0.57652593  0.52602607    -0.78600
Zn132      Zn  0.52653120  0.57579442  0.53622456     1.55700
O133        O  0.53852603  0.51057617  0.47408969    -0.80000
Cd134      Cd  0.57862976  0.53697409  0.52699196     1.59700
Cd135      Cd  0.53654652  0.52319847  0.57642719     1.59600
O136        O  0.60346595  0.51542161  0.55472443    -0.80000
O137        O  0.53928163  0.53803481  0.53798012    -1.90500
Cd138      Cd  0.51720613  0.51440899  0.51214937     1.59900
O139        O  0.57599655  0.51560576  0.59209183    -0.80000
O140        O  0.47943826  0.53457895  0.50532176    -0.78600
C141        C  0.51334306  0.57676776  0.59891526     0.83900
C142        C  0.58271794  0.59997054  0.52298646     0.83600
O143        O  0.49127846  0.57836131  0.51357524    -0.77600
C144        C  0.56392865  0.51541712  0.46832792     0.84400
O145        O  0.51654228  0.58777581  0.57507512    -0.77700
C146        C  0.59958860  0.51179726  0.58072830     0.84500
C147        C  0.50976643  0.46899996  0.55639904     0.84800
O148        O  0.51604512  0.48580694  0.57582822    -0.80100
O149        O  0.44127418  0.89679017  0.52425233    -0.77600
C150        C  0.52688334  0.93567017  0.51593148     0.83400
O151        O  0.46780834  0.94762300  0.60752092    -0.78700
O152        O  0.49195746  0.02091118  0.53713907    -0.80200
O153        O  0.42243162  0.98319273  0.48525633    -0.80000
O154        O  0.40527810  0.92439381  0.51637400    -0.78600
Zn155      Zn  0.47015619  0.92270863  0.54058503     1.55700
O156        O  0.46785641  0.98894529  0.47757160    -0.80000
Cd157      Cd  0.42000723  0.96343158  0.52325597     1.59700
Cd158      Cd  0.45491278  0.97593204  0.57812543     1.59600
O159        O  0.39042700  0.98063007  0.54964472    -0.80000
O160        O  0.45764049  0.96072179  0.53986814    -1.90500
Cd161      Cd  0.48465832  0.98290914  0.51750997     1.59900
O162        O  0.41470955  0.98537414  0.58864888    -0.80000
O163        O  0.52213725  0.96149590  0.51486940    -0.78600
C164        C  0.47412921  0.92233894  0.60444266     0.83900
C165        C  0.41606351  0.90053623  0.51739702     0.83600
O166        O  0.50798250  0.91838494  0.52233440    -0.77600
C167        C  0.44265487  0.98961976  0.46939812     0.84400
O168        O  0.47540528  0.91101416  0.58055112    -0.77700
C169        C  0.39200254  0.98668714  0.57538357     0.84500
C170        C  0.48711159  0.02859824  0.56213624     0.84800
O171        O  0.47531730  0.01300576  0.57989052    -0.80100
N172        N  0.52640265  0.24822644  0.73429017    -0.35700
N173        N  0.52170279  0.29079644  0.69184815    -0.56300
N174        N  0.52379315  0.24971703  0.64793482    -0.35700
N175        N  0.52553307  0.20722388  0.69194138    -0.56300
C176        C  0.51759444  0.27042139  0.74870915     0.27900
C177        C  0.51866409  0.22571329  0.74895771     0.27900
C178        C  0.51449156  0.27190261  0.63358130     0.27900
C179        C  0.51635471  0.22687911  0.63359388     0.27900
C180        C  0.52836448  0.30631581  0.71423018     0.36500
C181        C  0.52563311  0.30692818  0.66931396     0.36500
C182        C  0.53096050  0.19084228  0.71407532     0.36500
C183        C  0.53022493  0.19193621  0.66896302     0.36500
C184        C  0.50359414  0.26197895  0.77243782    -0.21000
C185        C  0.50425759  0.23372535  0.77259303    -0.21000
C186        C  0.50164151  0.26304518  0.60940628    -0.21000
C187        C  0.50285351  0.23462920  0.60939380    -0.21000
C188        C  0.53711236  0.33219746  0.70589004    -0.22100
C189        C  0.53522656  0.33263710  0.67741688    -0.22100
C190        C  0.53966539  0.16517935  0.70516462    -0.22100
C191        C  0.53913971  0.16583699  0.67658462    -0.22100
C192        C  0.52398292  0.29796599  0.74195694    -0.17400
C193        C  0.52543575  0.19829216  0.74194662    -0.17400
C194        C  0.52159261  0.19934975  0.64184843    -0.17400
C195        C  0.51755673  0.29975938  0.64201508    -0.17400
H196        H  0.49390604  0.27484365  0.78805480     0.15500
H197        H  0.49500001  0.22063800  0.78826898     0.15500
H198        H  0.49196432  0.27563361  0.59363688     0.15500
H199        H  0.49441460  0.22120450  0.59354460     0.15500
H200        H  0.54372740  0.34918381  0.71883938     0.13800
H201        H  0.54005828  0.35002506  0.66419767     0.13800
H202        H  0.54501939  0.14758209  0.71782438     0.13800
H203        H  0.54365238  0.14867782  0.66292578     0.13800
H204        H  0.53980556  0.24865761  0.71725248     0.27000
H205        H  0.53599353  0.25010141  0.66576143     0.27000
O206        O  0.44832723  0.10601268  0.96407529    -0.77600
C207        C  0.52938502  0.06052218  0.98376072     0.83400
O208        O  0.48370459  0.05258996  0.88550545    -0.78700
O209        O  0.49020161  0.97672948  0.95483420    -0.80200
O210        O  0.42328981  0.02638339  0.00441610    -0.80000
O211        O  0.41067249  0.07956237  0.96613846    -0.78600
Zn212      Zn  0.47787851  0.07799308  0.95188495     1.55700
O213        O  0.46597808  0.01076333  0.01313511    -0.80000
Cd214      Cd  0.42449480  0.04001927  0.96402186     1.59700
Cd215      Cd  0.46223568  0.02694037  0.91241353     1.59600
O216        O  0.39686304  0.02131177  0.93655729    -0.80000
O217        O  0.46333847  0.04070779  0.95091758    -1.90500
Cd218      Cd  0.48601801  0.01537369  0.97450009     1.59900
O219        O  0.42207365  0.02732370  0.89822837    -0.80000
O220        O  0.52415180  0.03477447  0.98166468    -0.78600
C221        C  0.49171603  0.07737231  0.88912289     0.83900
C222        C  0.42219397  0.10307837  0.96690162     0.83600
O223        O  0.51206268  0.07894788  0.97632331    -0.77600
C224        C  0.44139752  0.01678330  0.02100311     0.84400
O225        O  0.49036799  0.08911475  0.91286631    -0.77700
C226        C  0.39896668  0.02272893  0.91013987     0.84500
C227        C  0.48373154  0.96922085  0.93015613     0.84800
O228        O  0.47436031  0.98613672  0.91216651    -0.80100
N229        N  0.74978841  0.23893730  0.01084189    -0.35700
N230        N  0.70595953  0.19885807  0.01261683    -0.56300
N231        N  0.74774486  0.15424663  0.01187559    -0.35700
N232        N  0.79100766  0.19607797  0.01401849    -0.56300
C233        C  0.72772035  0.25438259  0.01819297     0.27900
C234        C  0.77260587  0.25287145  0.01891847     0.27900
C235        C  0.72432332  0.13992923  0.01771782     0.27900
C236        C  0.76979621  0.13868937  0.01971465     0.27900
C237        C  0.69106263  0.22156694  0.00585261     0.36500
C238        C  0.68990592  0.17684391  0.00657587     0.36500
C239        C  0.80733020  0.21773611  0.00733619     0.36500
C240        C  0.80623084  0.17328521  0.00924694     0.36500
C241        C  0.73653948  0.27793025  0.03188479    -0.21000
C242        C  0.76495434  0.27696708  0.03236585    -0.21000
C243        C  0.73159620  0.11463124  0.02893756    -0.21000
C244        C  0.76024169  0.11390032  0.03027588    -0.21000
C245        C  0.66549133  0.21398545  0.99544146    -0.22100
C246        C  0.66472069  0.18572741  0.99592987    -0.22100
C247        C  0.83285544  0.20869835  0.99789709    -0.22100
C248        C  0.83222656  0.18051829  0.99928783    -0.22100
C249        C  0.70023354  0.24891576  0.01010005    -0.17400
C250        C  0.79995134  0.24540343  0.01195696    -0.17400
C251        C  0.79815454  0.14635362  0.01677763    -0.17400
C252        C  0.69675192  0.14899514  0.01242309    -0.17400
H253        H  0.72383077  0.29433443  0.04020556     0.15500
H254        H  0.77843627  0.29246831  0.04120616     0.15500
H255        H  0.71772903  0.09844634  0.03570934     0.15500
H256        H  0.77258703  0.09704748  0.03811656     0.15500
H257        H  0.64910061  0.22724179  0.98810411     0.13800
H258        H  0.64754272  0.17318427  0.98898198     0.13800
H259        H  0.85027371  0.22098979  0.99108040     0.13800
H260        H  0.84909890  0.16687840  0.99385150     0.13800
H261        H  0.74945592  0.22197642  0.99753985     0.27000
H262        H  0.74855110  0.17280632  0.00114334     0.27000
N263        N  0.23441677  0.01016602  0.74455114    -0.35700
N264        N  0.19348155  0.01005045  0.78846031    -0.56300
N265        N  0.14877832  0.01306031  0.74735128    -0.35700
N266        N  0.19118362  0.00984225  0.70366258    -0.56300
C267        C  0.24980942  0.00313170  0.76686880     0.27900
C268        C  0.24848429  0.00197146  0.72164858     0.27900
C269        C  0.13446557  0.00605532  0.77060130     0.27900
C270        C  0.13335336  0.00560008  0.72504428     0.27900
C271        C  0.21638974  0.01649471  0.80330278     0.36500
C272        C  0.17155230  0.01676044  0.80458037     0.36500
C273        C  0.21319278  0.01424008  0.68678792     0.36500
C274        C  0.16845149  0.01585507  0.68861486     0.36500
C275        C  0.27377532  0.98999551  0.75811541    -0.21000
C276        C  0.27291302  0.98920805  0.72952984    -0.21000
C277        C  0.10921658  0.99474666  0.76299421    -0.21000
C278        C  0.10853007  0.99442705  0.73421314    -0.21000
C279        C  0.20896645  0.02780865  0.82871233    -0.22100
C280        C  0.18056065  0.02774913  0.82961536    -0.22100
C281        C  0.20445720  0.02359518  0.66105573    -0.22100
C282        C  0.17606563  0.02440164  0.66213929    -0.22100
C283        C  0.24369333  0.01047115  0.79462143    -0.17400
C284        C  0.24072226  0.00771055  0.69394827    -0.17400
C285        C  0.14119561  0.00908396  0.69679219    -0.17400
C286        C  0.14374670  0.01005702  0.79831089    -0.17400
H287        H  0.29028889  0.98201650  0.77096140     0.15500
H288        H  0.28864035  0.98047813  0.71610406     0.15500
H289        H  0.09310461  0.98723265  0.77671505     0.15500
H290        H  0.09176114  0.98668901  0.72150709     0.15500
H291        H  0.22245557  0.03520159  0.84502283     0.13800
H292        H  0.16792762  0.03477209  0.84683953     0.13800
H293        H  0.21706699  0.02872986  0.64316788     0.13800
H294        H  0.16248175  0.02981953  0.64512460     0.13800
H295        H  0.21722507  0.02306982  0.74487596     0.27000
H296        H  0.16734999  0.02393248  0.74675176     0.27000
N297        N  0.98233976  0.74914846  0.22839511    -0.35700
N298        N  0.98180414  0.70687241  0.18582362    -0.56300
N299        N  0.98366541  0.74858957  0.14190092    -0.35700
N300        N  0.98791993  0.79049902  0.18608260    -0.56300
C301        C  0.98731149  0.72596992  0.24309509     0.27900
C302        C  0.99247846  0.77051643  0.24337382     0.27900
C303        C  0.99039091  0.72568113  0.12718272     0.27900
C304        C  0.99224918  0.77075213  0.12713120     0.27900
C305        C  0.97257905  0.69213521  0.20785835     0.36500
C306        C  0.97587333  0.69187505  0.16292892     0.36500
C307        C  0.98482011  0.80701214  0.20863293     0.36500
C308        C  0.98383609  0.80653105  0.16351686     0.36500
C309        C  0.00112203  0.73260695  0.26747204    -0.21000
C310        C  0.00444794  0.76071250  0.26760747    -0.21000
C311        C  0.00267181  0.73343417  0.10228437    -0.21000
C312        C  0.00370301  0.76190313  0.10218412    -0.21000
C313        C  0.96004690  0.66805486  0.19881618    -0.22100
C314        C  0.96259486  0.66767059  0.17036769    -0.22100
C315        C  0.97843232  0.83353281  0.20041303    -0.22100
C316        C  0.97778415  0.83324352  0.17186954    -0.22100
C317        C  0.97782179  0.69937947  0.23584447    -0.17400
C318        C  0.98966034  0.79865408  0.23633814    -0.17400
C319        C  0.98983004  0.79860819  0.13575393    -0.17400
C320        C  0.98524557  0.69819959  0.13585077    -0.17400
H321        H  0.00817728  0.71866968  0.28350014     0.15500
H322        H  0.01455886  0.77252768  0.28375855     0.15500
H323        H  0.01029029  0.72004983  0.08597788     0.15500
H324        H  0.01232015  0.77460379  0.08581921     0.15500
H325        H  0.95031599  0.65220813  0.21123017     0.13800
H326        H  0.95559959  0.65140226  0.15665797     0.13800
H327        H  0.97501733  0.85133678  0.21351229     0.13800
H328        H  0.97413539  0.85092702  0.15870175     0.13800
H329        H  0.96973697  0.75049991  0.21088159     0.27000
H330        H  0.97237172  0.74922251  0.16035794     0.27000
N331        N  0.25021332  0.73733363  0.49893985    -0.35700
N332        N  0.20997265  0.69340669  0.49539523    -0.56300
N333        N  0.25345494  0.65187550  0.50045713    -0.35700
N334        N  0.29400284  0.69736678  0.49989464    -0.56300
C335        C  0.22785758  0.75082363  0.48911142     0.27900
C336        C  0.27268377  0.75285534  0.49295563     0.27900
C337        C  0.23175627  0.63605301  0.49252257     0.27900
C338        C  0.27703916  0.63829912  0.49377752     0.27900
C339        C  0.19289453  0.71515020  0.49928826     0.36500
C340        C  0.19480943  0.67065907  0.50085528     0.36500
C341        C  0.30772610  0.71996753  0.50893289     0.36500
C342        C  0.30924552  0.67545801  0.50769030     0.36500
C343        C  0.23619799  0.77507011  0.47637594    -0.21000
C344        C  0.26454343  0.77630559  0.47869020    -0.21000
C345        C  0.24161954  0.61156999  0.48146712    -0.21000
C346        C  0.27023947  0.61302950  0.48214676    -0.21000
C347        C  0.16696065  0.70622877  0.50770036    -0.22100
C348        C  0.16811439  0.67804271  0.50851475    -0.22100
C349        C  0.33134640  0.71231205  0.52326421    -0.22100
C350        C  0.33247620  0.68409284  0.52217129    -0.22100
C351        C  0.20011054  0.74267699  0.49328201    -0.17400
C352        C  0.29982609  0.74714194  0.50218265    -0.17400
C353        C  0.30426131  0.64822430  0.49865912    -0.17400
C354        C  0.20346058  0.64343676  0.49515711    -0.17400
H355        H  0.22321901  0.79033988  0.46651751     0.15500
H356        H  0.27756047  0.79266900  0.47077178     0.15500
H357        H  0.22949104  0.59461938  0.47339050     0.15500
H358        H  0.28434076  0.59735156  0.47474466     0.15500
H359        H  0.14894981  0.71859625  0.51242587     0.13800
H360        H  0.15106696  0.66445610  0.51361497     0.13800
H361        H  0.34628990  0.72549033  0.53341611     0.13800
H362        H  0.34865945  0.67132484  0.53081477     0.13800
H363        H  0.24983258  0.72026678  0.51216978     0.27000
H364        H  0.25220370  0.67040778  0.51146256     0.27000
N365        N  0.73869861  0.50014260  0.24701807    -0.35700
N366        N  0.69818075  0.50490845  0.20267517    -0.56300
N367        N  0.65349283  0.50386476  0.24360608    -0.35700
N368        N  0.69563360  0.50255713  0.28761377    -0.56300
C369        C  0.75391478  0.50786775  0.22477198     0.27900
C370        C  0.75282602  0.50800695  0.26996885     0.27900
C371        C  0.63974925  0.51258656  0.22069667     0.27900
C372        C  0.63830022  0.51106869  0.26616742     0.27900
C373        C  0.72060335  0.49670224  0.18792524     0.36500
C374        C  0.67599556  0.50050396  0.18621355     0.36500
C375        C  0.71720047  0.49643323  0.30446016     0.36500
C376        C  0.67242229  0.49746671  0.30239403     0.36500
C377        C  0.77754725  0.52153235  0.23359260    -0.21000
C378        C  0.77689185  0.52156600  0.26219256    -0.21000
C379        C  0.61524200  0.52513371  0.22878428    -0.21000
C380        C  0.61432422  0.52416779  0.25752216    -0.21000
C381        C  0.71259659  0.48669194  0.16216148    -0.22100
C382        C  0.68434424  0.48928536  0.16100578    -0.22100
C383        C  0.70772499  0.48700355  0.32990773    -0.22100
C384        C  0.67933729  0.48766888  0.32862541    -0.22100
C385        C  0.74811663  0.50015816  0.19708071    -0.17400
C386        C  0.74511573  0.50153635  0.29755050    -0.17400
C387        C  0.64551700  0.50551897  0.29416951    -0.17400
C388        C  0.64865643  0.50852543  0.19284875    -0.17400
H389        H  0.79376194  0.53025437  0.22075178     0.15500
H390        H  0.79243656  0.53044930  0.27567506     0.15500
H391        H  0.59972495  0.53419423  0.21543569     0.15500
H392        H  0.59795130  0.53230445  0.27054174     0.15500
H393        H  0.72553354  0.47841989  0.14579664     0.13800
H394        H  0.67141861  0.48341116  0.14361347     0.13800
H395        H  0.71989155  0.48079676  0.34769453     0.13800
H396        H  0.66534805  0.48229719  0.34539574     0.13800
H397        H  0.72160049  0.48702365  0.24646886     0.27000
H398        H  0.67124259  0.49174071  0.24379321     0.27000
O399        O  0.88889330  0.53165620  0.44862380    -0.77600
C400        C  0.94137161  0.51616606  0.52644898     0.83400
O401        O  0.94507543  0.61187336  0.47779870    -0.78700
O402        O  0.02156706  0.54253838  0.48140740    -0.80200
O403        O  0.97124283  0.49178470  0.41701395    -0.80000
O404        O  0.91298276  0.52235408  0.41018732    -0.78600
Zn405      Zn  0.91923638  0.54622548  0.47509051     1.55700
O406        O  0.98735272  0.48310739  0.45962070    -0.80000
Cd407      Cd  0.95348299  0.53035273  0.41954011     1.59700
Cd408      Cd  0.96955139  0.58397895  0.45554809     1.59600
O409        O  0.96617478  0.55847826  0.38933984    -0.80000
O410        O  0.95575834  0.54554113  0.45790499    -1.90500
Cd411      Cd  0.98303767  0.52224541  0.47905034     1.59900
O412        O  0.96685765  0.59682101  0.41493128    -0.80000
O413        O  0.96669856  0.51631356  0.51876445    -0.78600
C414        C  0.92045042  0.60877214  0.48699615     0.83900
C415        C  0.89017419  0.52355432  0.42333012     0.83600
O416        O  0.92172082  0.52441400  0.51078046    -0.77600
C417        C  0.98155878  0.47531643  0.43482148     0.84400
O418        O  0.90845910  0.58535302  0.48649847    -0.77700
C419        C  0.96710690  0.58464685  0.39145964     0.84500
C420        C  0.02865249  0.56712949  0.47501896     0.84800
O421        O  0.01122404  0.58476824  0.46602580    -0.80100
O422        O  0.05438061  0.88857564  0.46216837    -0.77600
C423        C  0.97350662  0.93268242  0.47852845     0.83400
O424        O  0.02865171  0.94613697  0.38214952    -0.78700
O425        O  0.01365776  0.01695695  0.45856684    -0.80200
O426        O  0.08180642  0.96943806  0.50653390    -0.80000
O427        O  0.09174126  0.91337149  0.47270745    -0.78600
Zn428      Zn  0.02762714  0.91788262  0.44756880     1.55700
O429        O  0.03858248  0.98345310  0.51524963    -0.80000
Cd430      Cd  0.08096036  0.95360150  0.46674328     1.59700
Cd431      Cd  0.04483007  0.97192015  0.41323117     1.59600
O432        O  0.11157044  0.96946075  0.44022296    -0.80000
O433        O  0.04259712  0.95495011  0.45109856    -1.90500
Cd434      Cd  0.01872515  0.97793735  0.47671054     1.59900
O435        O  0.08604953  0.97553127  0.40214223    -0.80000
O436        O  0.98029835  0.95767419  0.48371742    -0.78600
C437        C  0.02130939  0.92093967  0.38398436     0.83900
C438        C  0.07934392  0.89036793  0.47062658     0.83600
O439        O  0.99020852  0.91617745  0.46641023    -0.77600
C440        C  0.06348305  0.97901688  0.52300077     0.84400
O441        O  0.02051347  0.90854091  0.40729111    -0.77700
C442        C  0.10947005  0.97445283  0.41426159     0.84500
C443        C  0.01748184  0.02621783  0.43392972     0.84800
O444        O  0.02720630  0.01128798  0.41425881    -0.80100
O445        O  0.95113107  0.38893520  0.02521420    -0.77600
C446        C  0.03160824  0.43558701  0.01264187     0.83400
O447        O  0.97930011  0.44172166  0.10717010    -0.78700
O448        O  0.98961171  0.51718069  0.03288053    -0.80200
O449        O  0.92204442  0.46757134  0.98582465    -0.80000
O450        O  0.91211754  0.41326073  0.02230171    -0.78600
Zn451      Zn  0.97790143  0.41724598  0.04113996     1.55700
O452        O  0.96446468  0.48277703  0.97544272    -0.80000
Cd453      Cd  0.92456950  0.45333109  0.02600294     1.59700
Cd454      Cd  0.96387136  0.46959742  0.07808835     1.59600
O455        O  0.89710679  0.47218091  0.05314579    -0.80000
O456        O  0.96322155  0.45423752  0.03970883    -1.90500
Cd457      Cd  0.98496558  0.47855681  0.01384820     1.59900
O458        O  0.92366303  0.47626262  0.09091110    -0.80000
O459        O  0.02384026  0.46018729  0.00729490    -0.78600
C460        C  0.98509646  0.41627156  0.10425990     0.83900
C461        C  0.92510479  0.39055892  0.02099799     0.83600
O462        O  0.01545145  0.41783471  0.02356186    -0.77600
C463        C  0.93955820  0.47711746  0.96850281     0.84400
O464        O  0.98482061  0.40471650  0.08051599    -0.77700
C465        C  0.90018561  0.47732490  0.07896601     0.84500
C466        C  0.99011515  0.52424413  0.05852526     0.84800
O467        O  0.98407251  0.50749879  0.07814107    -0.80100
N468        N  0.27053713  0.98936191  0.24393876    -0.35700
N469        N  0.31222357  0.99006993  0.28703685    -0.56300
N470        N  0.35638307  0.99442206  0.24561604    -0.35700
N471        N  0.31338632  0.99736240  0.20271795    -0.56300
C472        C  0.25521867  0.99401565  0.26710386     0.27900
C473        C  0.25567646  0.99838647  0.22189863     0.27900
C474        C  0.37032752  0.00107402  0.26910302     0.27900
C475        C  0.37109738  0.00414115  0.22376311     0.27900
C476        C  0.29030591  0.98027437  0.30153626     0.36500
C477        C  0.33495968  0.98386593  0.30203737     0.36500
C478        C  0.29160051  0.99204096  0.18585987     0.36500
C479        C  0.33638221  0.99406039  0.18701946     0.36500
C480        C  0.23045904  0.00643777  0.25968128    -0.21000
C481        C  0.23071316  0.00909107  0.23116000    -0.21000
C482        C  0.39460812  0.01467188  0.26207215    -0.21000
C483        C  0.39515869  0.01649595  0.23335877    -0.21000
C484        C  0.29923304  0.96707198  0.32542806    -0.22100
C485        C  0.32754117  0.96960512  0.32588040    -0.22100
C486        C  0.30082492  0.98484018  0.15952989    -0.22100
C487        C  0.32917278  0.98632963  0.16020249    -0.22100
C488        C  0.26249065  0.98559518  0.29436642    -0.17400
C489        C  0.26362250  0.99576877  0.19364644    -0.17400
C490        C  0.36342794  0.00133622  0.19552307    -0.17400
C491        C  0.36165129  0.99439694  0.29642374    -0.17400
H492        H  0.21390229  0.01305076  0.27332080     0.15500
H493        H  0.21440379  0.01803353  0.21871187     0.15500
H494        H  0.41026159  0.02246248  0.27610816     0.15500
H495        H  0.41128701  0.02601539  0.22099185     0.15500
H496        H  0.28676682  0.95698058  0.34111585     0.13800
H497        H  0.34113360  0.96226926  0.34213395     0.13800
H498        H  0.28853199  0.97934246  0.14158047     0.13800
H499        H  0.34292414  0.98259526  0.14279113     0.13800
H500        H  0.28865756  0.97779500  0.24295302     0.27000
H501        H  0.33876258  0.98213620  0.24438478     0.27000
O502        O  0.05912948  0.10674857  0.02591189    -0.77600
C503        C  0.97422534  0.06789179  0.02627568     0.83400
O504        O  0.03730730  0.05081297  0.11088076    -0.78700
O505        O  0.01014856  0.98221574  0.03863420    -0.80200
O506        O  0.07923934  0.01987463  0.98552784    -0.80000
O507        O  0.09461089  0.08068973  0.01221878    -0.78600
Zn508      Zn  0.03382911  0.07963935  0.04611347     1.55700
O509        O  0.03349753  0.01515525  0.97889745    -0.80000
Cd510      Cd  0.08286847  0.04105094  0.02276214     1.59700
Cd511      Cd  0.05016771  0.02493771  0.07892223     1.59600
O512        O  0.11468729  0.02556086  0.04814286    -0.80000
O513        O  0.04577965  0.04194236  0.04150721    -1.90500
Cd514      Cd  0.01723743  0.02092384  0.01939078     1.59900
O515        O  0.09112781  0.01623100  0.08687773    -0.80000
O516        O  0.97959309  0.04329370  0.01835047    -0.78600
C517        C  0.03551333  0.07693172  0.10949359     0.83900
C518        C  0.08295376  0.10407614  0.01466237     0.83600
O519        O  0.99313892  0.08360896  0.03593559    -0.77600
C520        C  0.05856213  0.01395000  0.97012744     0.84400
O521        O  0.03587714  0.08965068  0.08638164    -0.77700
C522        C  0.11376638  0.01723815  0.07331426     0.84500
C523        C  0.01734971  0.97297123  0.06251296     0.84800
O524        O  0.03101970  0.98739524  0.07982380    -0.80100
N525        N  0.01561460  0.24779253  0.26520849    -0.35700
N526        N  0.01696706  0.20766917  0.30916302    -0.56300
N527        N  0.01257493  0.25125132  0.35133031    -0.35700
N528        N  0.00819525  0.29099254  0.30555092    -0.56300
C529        C  0.00988656  0.22407623  0.25171046     0.27900
C530        C  0.00563251  0.26851043  0.24942570     0.27900
C531        C  0.00670603  0.22858746  0.36680210     0.27900
C532        C  0.00266290  0.27362592  0.36505548     0.27900
C533        C  0.02538163  0.19174358  0.28763758     0.36500
C534        C  0.02316322  0.19376478  0.33259808     0.36500
C535        C  0.01360421  0.30620402  0.28252850     0.36500
C536        C  0.01156530  0.30794125  0.32761002     0.36500
C537        C  0.99537565  0.22971968  0.22750863    -0.21000
C538        C  0.99275740  0.25784027  0.22602284    -0.21000
C539        C  0.99361858  0.23674908  0.39115522    -0.21000
C540        C  0.99112680  0.26516133  0.39008626    -0.21000
C541        C  0.03746889  0.16781205  0.29737440    -0.22100
C542        C  0.03591478  0.16901702  0.32590665    -0.22100
C543        C  0.02088151  0.33276054  0.28997685    -0.22100
C544        C  0.01954225  0.33388479  0.31850524    -0.22100
C545        C  0.01994171  0.19794957  0.25954880    -0.17400
C546        C  0.00971487  0.29672240  0.25500498    -0.17400
C547        C  0.00415226  0.30131177  0.35539888    -0.17400
C548        C  0.01327132  0.20096350  0.35935263    -0.17400
H549        H  0.98776871  0.21511507  0.21231054     0.15500
H550        H  0.98261233  0.26909805  0.20953455     0.15500
H551        H  0.98647678  0.22361106  0.40787431     0.15500
H552        H  0.98161722  0.27805336  0.40579191     0.15500
H553        H  0.04588344  0.15095896  0.28532137     0.13800
H554        H  0.04262654  0.15312905  0.34014495     0.13800
H555        H  0.02623576  0.34967764  0.27636454     0.13800
H556        H  0.02352597  0.35191954  0.33112375     0.13800
H557        H  0.02879203  0.24993564  0.28223146     0.27000
H558        H  0.02420008  0.25161395  0.33308050     0.27000
N559        N  0.25080410  0.25997539  0.97565760    -0.35700
N560        N  0.20895363  0.30167051  0.97708333    -0.56300
N561        N  0.25111304  0.34554086  0.97427274    -0.35700
N562        N  0.29302349  0.30228722  0.97611981    -0.56300
C563        C  0.22846133  0.24552516  0.98432120     0.27900
C564        C  0.27347917  0.24612814  0.98425147     0.27900
C565        C  0.22870048  0.35977559  0.98320233     0.27900
C566        C  0.27400671  0.36011776  0.98145438     0.27900
C567        C  0.19261931  0.27943916  0.97245476     0.36500
C568        C  0.19299731  0.32409160  0.97297610     0.36500
C569        C  0.30822207  0.27993562  0.96917850     0.36500
C570        C  0.30797627  0.32446087  0.96828817     0.36500
C571        C  0.23701878  0.22255799  0.99908124    -0.21000
C572        C  0.26546390  0.22292869  0.99902536    -0.21000
C573        C  0.23739162  0.38411770  0.99554177    -0.21000
C574        C  0.26600413  0.38429805  0.99450857    -0.21000
C575        C  0.16631203  0.28775502  0.96480536    -0.22100
C576        C  0.16649579  0.31604161  0.96531356    -0.22100
C577        C  0.33252203  0.28790878  0.95610396    -0.22100
C578        C  0.33248071  0.31616129  0.95577890    -0.22100
C579        C  0.20070163  0.25203372  0.97792156    -0.17400
C580        C  0.30095201  0.25282850  0.97678149    -0.17400
C581        C  0.30168141  0.35171927  0.97624673    -0.17400
C582        C  0.20074848  0.35128202  0.98027356    -0.17400
H583        H  0.22415640  0.20715691  0.00899021     0.15500
H584        H  0.27868797  0.20778166  0.00873806     0.15500
H585        H  0.22449154  0.39991247  0.00473084     0.15500
H586        H  0.27929301  0.40020589  0.00286487     0.15500
H587        H  0.14860715  0.27490300  0.96015856     0.13800
H588        H  0.14889062  0.32921790  0.96134038     0.13800
H589        H  0.34872497  0.27491392  0.94782570     0.13800
H590        H  0.34883880  0.32917828  0.94772477     0.13800
H591        H  0.25063325  0.27642795  0.96174505     0.27000
H592        H  0.25073817  0.32754308  0.96247684     0.27000
C593        C  0.13042433  0.15204580  0.98808423     0.30600
C594        C  0.15520650  0.16056581  0.97546619    -0.35700
C595        C  0.16126243  0.18874872  0.97720576     0.16600
C596        C  0.14425457  0.20734175  0.99058640     0.22400
C597        C  0.11916034  0.19887930  0.00278187    -0.33800
C598        C  0.11299912  0.17064551  0.00093474     0.16500
O599        O  0.12174444  0.12642111  0.99056613    -0.25800
C600        C  0.09824130  0.12853266  0.00492249     0.06300
C601        C  0.09168734  0.15560511  0.01185415    -0.30700
O602        O  0.15520771  0.23226424  0.99179403    -0.22500
C603        C  0.17954461  0.22962517  0.97893345    -0.02500
C604        C  0.18410958  0.20301883  0.96906816    -0.17000
H605        H  0.16926015  0.14607593  0.96579265     0.21000
H606        H  0.10584585  0.21313647  0.01377006     0.19400
H607        H  0.07450132  0.16294336  0.02428968     0.19300
H608        H  0.20232571  0.19504923  0.95867650     0.15200
C609        C  0.02444647  0.14056041  0.21439779     0.30600
C610        C  0.02060638  0.11329014  0.20511339    -0.35700
C611        C  0.02711515  0.10826318  0.17697535     0.16600
C612        C  0.03634205  0.12881459  0.15940991     0.22400
C613        C  0.04061982  0.15567174  0.16874487    -0.33800
C614        C  0.03453088  0.16052703  0.19668117     0.16500
O615        O  0.01848954  0.15057325  0.23932429    -0.25800
C616        C  0.02503474  0.17721150  0.23730367     0.06300
C617        C  0.03560627  0.18422908  0.21134828    -0.30700
O618        O  0.04020481  0.12026789  0.13381783    -0.22500
C619        C  0.03378862  0.09373914  0.13473363    -0.02500
C620        C  0.02560151  0.08489297  0.16109381    -0.17000
H621        H  0.01274077  0.09730662  0.21867298     0.21000
H622        H  0.04784721  0.17181321  0.15501095     0.19400
H623        H  0.04218725  0.20426166  0.20400583     0.19300
H624        H  0.01905326  0.06451861  0.16741065     0.15200
C625        C  0.20347564  0.99093652  0.15232430     0.30600
C626        C  0.17606807  0.98349670  0.14650265    -0.35700
C627        C  0.16494071  0.99391566  0.12176636     0.16600
C628        C  0.17970595  0.01038985  0.10364792     0.22400
C629        C  0.20735663  0.01767649  0.10939051    -0.33800
C630        C  0.21844633  0.00743118  0.13441365     0.16500
O631        O  0.21729305  0.98457825  0.17505479    -0.25800
C632        C  0.24164991  0.99702585  0.17185708     0.06300
C633        C  0.24343409  0.01174099  0.14695093    -0.30700
O634        O  0.16422277  0.01966825  0.08293891    -0.22500
C635        C  0.13924947  0.00902645  0.08808558    -0.02500
C636        C  0.13867291  0.99274904  0.11186681    -0.17000
H637        H  0.16389884  0.97122617  0.16080544     0.21000
H638        H  0.21904664  0.03120153  0.09586650     0.19400
H639        H  0.26040942  0.02432604  0.13952102     0.19300
H640        H  0.12095742  0.98285927  0.12143409     0.15200
C641        C  0.09608428  0.40350811  0.01431811     0.30600
C642        C  0.11468185  0.38344339  0.02332878    -0.35700
C643        C  0.13979350  0.38210113  0.00899401     0.16600
C644        C  0.14639625  0.39924952  0.98707911     0.22400
C645        C  0.12789615  0.42003189  0.97847377    -0.33800
C646        C  0.10252109  0.42144133  0.99299806     0.16500
O647        O  0.07070754  0.40653795  0.02357906    -0.25800
C648        C  0.06044926  0.42690534  0.00840363     0.06300
C649        C  0.07936955  0.43735161  0.98911444    -0.30700
O650        O  0.16980824  0.39192483  0.97469435    -0.22500
C651        C  0.17810979  0.37000663  0.98915689    -0.02500
C652        C  0.16033521  0.36326518  0.01083617    -0.17000
H653        H  0.10938491  0.36899317  0.03963015     0.21000
H654        H  0.13241417  0.43328350  0.96095409     0.19400
H655        H  0.07614799  0.45335977  0.97382444     0.19300
H656        H  0.16133819  0.34559433  0.02450309     0.15200
C657        C  0.00484406  0.36595933  0.15278461     0.30600
C658        C  0.01627903  0.34096306  0.16188205    -0.35700
C659        C  0.01232025  0.33457913  0.19011408     0.16600
C660        C  0.99792066  0.35146403  0.20811965     0.22400
C661        C  0.98682240  0.37661706  0.19910359    -0.33800
C662        C  0.99101123  0.38316087  0.17095323     0.16500
O663        O  0.00502683  0.37547332  0.12705011    -0.25800
C664        C  0.99156584  0.39933891  0.12884336     0.06300
C665        C  0.98243575  0.40518953  0.15568236    -0.30700
O666        O  0.99549892  0.34082567  0.23328740    -0.22500
C667        C  0.00857830  0.31676554  0.23150463    -0.02500
C668        C  0.01972325  0.31200605  0.20511982    -0.17000
H669        H  0.02707463  0.32722615  0.14783160     0.21000
H670        H  0.97533515  0.38996270  0.21297535     0.19400
H671        H  0.97029454  0.42259718  0.16265914     0.19300
H672        H  0.03104264  0.29414977  0.19789062     0.15200
C673        C  0.99767170  0.09008031  0.40615959     0.30600
C674        C  0.98582935  0.10763501  0.38635707    -0.35700
C675        C  0.99394425  0.13535365  0.38750338     0.16600
C676        C  0.01283279  0.14531725  0.40651523     0.22400
C677        C  0.02403044  0.12785247  0.42703248    -0.33800
C678        C  0.01556776  0.10004396  0.42614074     0.16500
O679        O  0.99526246  0.06298761  0.40676416    -0.25800
C680        C  0.01121993  0.05536398  0.42790949     0.06300
C681        C  0.02424550  0.07756357  0.44087199    -0.30700
O682        O  0.02072376  0.17090461  0.40080601    -0.22500
C683        C  0.00626362  0.17745971  0.37811934    -0.02500
C684        C  0.98905147  0.15614601  0.36932663    -0.17000
H685        H  0.97237390  0.09991093  0.37014395     0.21000
H686        H  0.03943221  0.13505419  0.44165747     0.19400
H687        H  0.03947141  0.07696037  0.45734651     0.19300
H688        H  0.97709367  0.15512113  0.35032618     0.15200
C689        C  0.17530286  0.98200571  0.38289708     0.30600
C690        C  0.20382232  0.98791317  0.38047192    -0.35700
C691        C  0.21551124  0.98441393  0.35375190     0.16600
C692        C  0.20027990  0.97526366  0.33132506     0.22400
C693        C  0.17201900  0.96960660  0.33369278    -0.33800
C694        C  0.16031502  0.97363619  0.35999079     0.16500
O695        O  0.15969728  0.98379696  0.40561247    -0.25800
C696        C  0.13442456  0.97702139  0.39664956     0.06300
C697        C  0.13378270  0.97060153  0.36850952    -0.30700
O698        O  0.21483633  0.97383688  0.30821152    -0.22500
C699        C  0.23994015  0.98240934  0.31545801    -0.02500
C700        C  0.24154092  0.98941529  0.34367273    -0.17000
H701        H  0.21591891  0.99504734  0.39798740     0.21000
H702        H  0.15983446  0.96295550  0.31604449     0.19400
H703        H  0.11625602  0.96396434  0.35619491     0.19300
H704        H  0.25900223  0.99784095  0.35490651     0.15200
C705        C  0.97720845  0.41053755  0.40251969     0.30600
C706        C  0.96767955  0.39201808  0.38230635    -0.35700
C707        C  0.97894284  0.36547731  0.38305421     0.16600
C708        C  0.99860555  0.35751045  0.40216180     0.22400
C709        C  0.00763842  0.37598673  0.42305306    -0.33800
C710        C  0.99611795  0.40273385  0.42245523     0.16500
O711        O  0.97031006  0.43669209  0.40435693    -0.25800
C712        C  0.98461045  0.44618694  0.42597697     0.06300
C713        C  0.00095062  0.42586324  0.43832973    -0.30700
O714        O  0.00888572  0.33274932  0.39649592    -0.22500
C715        C  0.99534729  0.32480211  0.37361219    -0.02500
C716        C  0.97615583  0.34429531  0.36479708    -0.17000
H717        H  0.95318739  0.39822505  0.36636175     0.21000
H718        H  0.02335002  0.37028982  0.43797877     0.19400
H719        H  0.01473160  0.42796260  0.45592525     0.19300
H720        H  0.96392758  0.34398519  0.34594498     0.15200
C721        C  0.78779363  0.50946822  0.35682322     0.30600
C722        C  0.79564899  0.51964798  0.38311684    -0.35700
C723        C  0.82338548  0.51524516  0.39085530     0.16600
C724        C  0.84196736  0.50181270  0.37375195     0.22400
C725        C  0.83403380  0.49126000  0.34780068    -0.33800
C726        C  0.80644168  0.49565483  0.34013840     0.16500
O727        O  0.76355556  0.51286170  0.34454273    -0.25800
C728        C  0.76678386  0.50108079  0.31965228     0.06300
C729        C  0.79302729  0.48978371  0.31600457    -0.30700
O730        O  0.86732266  0.50210172  0.38368582    -0.22500
C731        C  0.86518258  0.51562014  0.40768995    -0.02500
C732        C  0.83822480  0.52415243  0.41342173    -0.17000
H733        H  0.78141886  0.53104383  0.39617200     0.21000
H734        H  0.84867460  0.48124050  0.33405174     0.19400
H735        H  0.80130131  0.47956246  0.29777285     0.19300
H736        H  0.83104190  0.53664788  0.43063160     0.15200
C737        C  0.79602355  0.49532949  0.14160804     0.30600
C738        C  0.80606942  0.49818944  0.11428642    -0.35700
C739        C  0.83402879  0.49129488  0.11020761     0.16600
C740        C  0.85082935  0.48249662  0.13162758     0.22400
C741        C  0.84063725  0.47898993  0.15863255    -0.33800
C742        C  0.81277466  0.48558926  0.16258629     0.16500
O743        O  0.77096300  0.50160311  0.15059812    -0.25800
C744        C  0.77171380  0.49557807  0.17764562     0.06300
C745        C  0.79715584  0.48504277  0.18598085    -0.30700
O746        O  0.87630436  0.47751592  0.12347210    -0.22500
C747        C  0.87591730  0.48283381  0.09638177    -0.02500
C748        C  0.85013029  0.49136025  0.08682715    -0.17000
H749        H  0.79311689  0.50548557  0.09750519     0.21000
H750        H  0.85360460  0.47179186  0.17545332     0.19400
H751        H  0.80344436  0.47840486  0.20650695     0.19300
H752        H  0.84413112  0.49652514  0.06578958     0.15200
C753        C  0.14220131  0.61363462  0.47141644     0.30600
C754        C  0.11686344  0.61515573  0.45747952    -0.35700
C755        C  0.09594419  0.59763874  0.46705394     0.16600
C756        C  0.09961523  0.57922446  0.48854827     0.22400
C757        C  0.12521976  0.57765855  0.50262098    -0.33800
C758        C  0.14623407  0.59568929  0.49326965     0.16500
O759        O  0.16304021  0.63069552  0.46784443    -0.25800
C760        C  0.18107077  0.62384745  0.48749615     0.06300
C761        C  0.17180101  0.60203250  0.50398754    -0.30700
O762        O  0.07657604  0.56542149  0.49437879    -0.22500
C763        C  0.05802759  0.57563978  0.47658739    -0.02500
C764        C  0.06904385  0.59572851  0.45924733    -0.17000
H765        H  0.11328792  0.62999893  0.44110101     0.21000
H766        H  0.12819170  0.56416992  0.52026396     0.19400
H767        H  0.18117494  0.59404375  0.52273960     0.19300
H768        H  0.05860716  0.60736911  0.44320190     0.15200
C769        C  0.11096880  0.82559947  0.47678533     0.30600
C770        C  0.11650908  0.79793943  0.47013377    -0.35700
C771        C  0.14135503  0.78712267  0.48069004     0.16600
C772        C  0.15931418  0.80242482  0.49680073     0.22400
C773        C  0.15376236  0.82988747  0.50351477    -0.33800
C774        C  0.12916106  0.84069573  0.49284211     0.16500
O775        O  0.09002896  0.84060723  0.46765431    -0.25800
C776        C  0.09513038  0.86556633  0.47798108     0.06300
C777        C  0.11912859  0.86670031  0.49383594    -0.30700
O778        O  0.18180999  0.78877108  0.50357362    -0.22500
C779        C  0.17836774  0.76423145  0.49180404    -0.02500
C780        C  0.15357827  0.76205761  0.47712935    -0.17000
H781        H  0.10285709  0.78596343  0.45701301     0.21000
H782        H  0.16805690  0.84223148  0.51556335     0.19400
H783        H  0.12847754  0.88448429  0.50366027     0.19300
H784        H  0.14608771  0.74481739  0.46500008     0.15200
C785        C  0.99223957  0.85641433  0.09206258     0.30600
C786        C  0.98112128  0.87739011  0.07512981    -0.35700
C787        C  0.99574894  0.90254653  0.07478434     0.16600
C788        C  0.01925971  0.90666194  0.09050486     0.22400
C789        C  0.03058919  0.88571262  0.10682039    -0.33800
C790        C  0.01645180  0.86060751  0.10663568     0.16500
O791        O  0.98052366  0.83250157  0.09827541    -0.25800
C792        C  0.99789229  0.82119526  0.11655210     0.06300
C793        C  0.02072229  0.83771178  0.12212067    -0.30700
O794        O  0.02908638  0.93178894  0.08837175    -0.22500
C795        C  0.01213795  0.94417432  0.07061984    -0.02500
C796        C  0.99091487  0.92698862  0.06129226    -0.17000
H797        H  0.96202278  0.87459098  0.06374382     0.21000
H798        H  0.04886892  0.88899961  0.11938739     0.19400
H799        H  0.03639052  0.83463635  0.13788427     0.19300
H800        H  0.97430258  0.93187283  0.04707018     0.15200
C801        C  0.00533494  0.63380631  0.10952405     0.30600
C802        C  0.01482381  0.60672728  0.11265763    -0.35700
C803        C  0.00760441  0.58820955  0.09153510     0.16600
C804        C  0.99252611  0.59585429  0.06846175     0.22400
C805        C  0.98324063  0.62317805  0.06516412    -0.33800
C806        C  0.99009392  0.64171958  0.08665678     0.16500
O807        O  0.00689237  0.65321804  0.12856021    -0.25800
C808        C  0.99262914  0.67416340  0.11800106     0.06300
C809        C  0.98172272  0.66824417  0.09179516    -0.30700
O810        O  0.98587659  0.57450181  0.05268844    -0.22500
C811        C  0.99664925  0.55297441  0.06602533    -0.02500
C812        C  0.01038539  0.56034694  0.09029758    -0.17000
H813        H  0.02564608  0.60015720  0.13118884     0.21000
H814        H  0.97025723  0.62915911  0.04788190     0.19400
H815        H  0.96783340  0.68073215  0.07950178     0.19300
H816        H  0.01955834  0.54691312  0.10567738     0.15200
C817        C  0.96557792  0.66481988  0.29897650     0.30600
C818        C  0.95986974  0.66330565  0.32747978    -0.35700
C819        C  0.96348309  0.63748495  0.33976319     0.16600
C820        C  0.97158846  0.61444816  0.32502695     0.22400
C821        C  0.97739828  0.61600930  0.29639099    -0.33800
C822        C  0.97431343  0.64209771  0.28415770     0.16500
O823        O  0.96492282  0.68730797  0.28380922    -0.25800
C824        C  0.97354977  0.67920750  0.25880634     0.06300
C825        C  0.97990002  0.65118344  0.25788959    -0.30700
O826        O  0.97390599  0.59245959  0.34104054    -0.22500
C827        C  0.96759217  0.60181911  0.36632544    -0.02500
C828        C  0.96095139  0.62964185  0.36669891    -0.17000
H829        H  0.95372783  0.68120767  0.33940502     0.21000
H830        H  0.98444324  0.59832812  0.28464664     0.19400
H831        H  0.98850920  0.63943546  0.24080590     0.19300
H832        H  0.95505732  0.64224822  0.38433073     0.15200
C833        C  0.99813034  0.87234697  0.33523940     0.30600
C834        C  0.98479513  0.84811653  0.32670396    -0.35700
C835        C  0.98912402  0.84011492  0.29901200     0.16600
C836        C  0.00559910  0.85478250  0.28083092     0.22400
C837        C  0.01873266  0.87933939  0.28929858    -0.33800
C838        C  0.01419240  0.88753546  0.31708615     0.16500
O839        O  0.99801194  0.88256398  0.36065736    -0.25800
C840        C  0.01379778  0.90496406  0.35892808     0.06300
C841        C  0.02439541  0.90920405  0.33223158    -0.30700
O842        O  0.00772240  0.84263451  0.25623264    -0.22500
C843        C  0.99238496  0.81987405  0.25876387    -0.02500
C844        C  0.98012917  0.81752879  0.28491406    -0.17000
H845        H  0.97235018  0.83598964  0.34089168     0.21000
H846        H  0.03194739  0.89095011  0.27537617     0.19400
H847        H  0.03862693  0.92505434  0.32539541     0.19300
H848        H  0.96699633  0.80113538  0.29261234     0.15200
C849        C  0.08915661  0.99370663  0.90747866     0.30600
C850        C  0.11073997  0.98281065  0.89138172    -0.35700
C851        C  0.11231423  0.99189524  0.86377423     0.16600
C852        C  0.09404622  0.01061798  0.85253396     0.22400
C853        C  0.07190382  0.02106741  0.86853835    -0.33800
C854        C  0.07016299  0.01175332  0.89628769     0.16500
O855        O  0.08626677  0.99072460  0.93459103    -0.25800
C856        C  0.06466384  0.00644629  0.94103098     0.06300
C857        C  0.05363712  0.01992883  0.91797341    -0.30700
O858        O  0.10155841  0.01862702  0.82722674    -0.22500
C859        C  0.12485747  0.00467525  0.82231912    -0.02500
C860        C  0.13219999  0.98754298  0.84427601    -0.17000
H861        H  0.12621975  0.96934910  0.90024276     0.21000
H862        H  0.05790572  0.03644257  0.86040649     0.19400
H863        H  0.03774702  0.03561305  0.91775676     0.19300
H864        H  0.15074836  0.97523193  0.84632540     0.15200
C865        C  0.09275219  0.97680074  0.58947341     0.30600
C866        C  0.11041867  0.96651871  0.61000919    -0.35700
C867        C  0.11128200  0.98132193  0.63496781     0.16600
C868        C  0.09624603  0.00505001  0.63945515     0.22400
C869        C  0.07800118  0.01508823  0.61896483    -0.33800
C870        C  0.07673830  0.99989424  0.59397953     0.16500
O871        O  0.09004699  0.96679977  0.56417661    -0.25800
C872        C  0.07166660  0.98327732  0.55219052     0.06300
C873        C  0.06239714  0.00418981  0.56978092    -0.30700
O874        O  0.10301972  0.01730057  0.66315132    -0.22500
C875        C  0.12217290  0.00076400  0.67405336    -0.02500
C876        C  0.12790482  0.97806767  0.65740886    -0.17000
H877        H  0.12330129  0.94864075  0.60643514     0.21000
H878        H  0.06634166  0.03387401  0.62191256     0.19400
H879        H  0.04805521  0.02062462  0.56508402     0.19300
H880        H  0.14401902  0.96286603  0.66024852     0.15200
C881        C  0.90263175  0.08221148  0.01782610     0.30600
C882        C  0.87546524  0.07946958  0.00723317    -0.35700
C883        C  0.85564563  0.09855593  0.01707944     0.16600
C884        C  0.86223549  0.11868164  0.03620386     0.22400
C885        C  0.88920557  0.12144388  0.04668344    -0.33800
C886        C  0.90893398  0.10274931  0.03659040     0.16500
O887        O  0.92461462  0.06707851  0.01125937    -0.25800
C888        C  0.94528680  0.07843628  0.02576572     0.06300
C889        C  0.93657796  0.10075882  0.04173715    -0.30700
O890        O  0.84175951  0.13607802  0.04052210    -0.22500
C891        C  0.82138502  0.12731519  0.02405505    -0.02500
C892        C  0.82883278  0.10379426  0.00904152    -0.17000
H893        H  0.87033952  0.06408037  0.99178431     0.21000
H894        H  0.89468871  0.13779975  0.06096430     0.19400
H895        H  0.94883792  0.11345609  0.05555404     0.19300
H896        H  0.81733263  0.09386523  0.99254022     0.15200
C897        C  0.87403614  0.34248739  0.00484570     0.30600
C898        C  0.84757206  0.33417026  0.99653984    -0.35700
C899        C  0.84066631  0.30678830  0.00216750     0.16600
C900        C  0.85843740  0.28877151  0.01523633     0.22400
C901        C  0.88521852  0.29696450  0.02306715    -0.33800
C902        C  0.89226186  0.32441739  0.01724900     0.16500
O903        O  0.88376301  0.36772751  0.00365152    -0.25800
C904        C  0.90874570  0.36586834  0.01500180     0.06300
C905        C  0.91532530  0.33936707  0.02369852    -0.30700
O906        O  0.84682482  0.26465431  0.02012033    -0.22500
C907        C  0.82133886  0.26730995  0.00993980    -0.02500
C908        C  0.81656532  0.29302673  0.99819832    -0.17000
H909        H  0.83303296  0.34833232  0.98719517     0.21000
H910        H  0.89922968  0.28318239  0.03370105     0.19400
H911        H  0.93354780  0.33258548  0.03480127     0.19300
H912        H  0.79774045  0.30070775  0.98882839     0.15200
C913        C  0.40998731  0.00181178  0.13959543     0.30600
C914        C  0.42774228  0.98960762  0.11983448    -0.35700
C915        C  0.42911384  0.00258906  0.09369691     0.16600
C916        C  0.41381616  0.02577158  0.08757738     0.22400
C917        C  0.39682161  0.03836476  0.10745018    -0.33800
C918        C  0.39565855  0.02560360  0.13347698     0.16500
O919        O  0.40239609  0.99115628  0.16375626    -0.25800
C920        C  0.38334492  0.00864709  0.17325456     0.06300
C921        C  0.37860898  0.03057259  0.15537043    -0.30700
O922        O  0.41617358  0.03328320  0.06142856    -0.22500
C923        C  0.43356042  0.01504920  0.05049617    -0.02500
C924        C  0.44259933  0.99550841  0.06961952    -0.17000
H925        H  0.43860070  0.97060280  0.12405727     0.21000
H926        H  0.38431406  0.05616834  0.10251851     0.19400
H927        H  0.36257752  0.04606041  0.15687280     0.19300
H928        H  0.45620803  0.97817975  0.06604296     0.15200
C929        C  0.30695977  0.02122240  0.82904719     0.30600
C930        C  0.33460619  0.02957108  0.83119781    -0.35700
C931        C  0.34744110  0.02438239  0.85672056     0.16600
C932        C  0.33402660  0.01216444  0.87889984     0.22400
C933        C  0.30628060  0.00363622  0.87666619    -0.33800
C934        C  0.29345899  0.00857512  0.85090914     0.16500
O935        O  0.29125974  0.02375563  0.80687068    -0.25800
C936        C  0.26721956  0.01262613  0.81442435     0.06300
C937        C  0.26746117  0.00260567  0.84161425    -0.30700
O938        O  0.35018534  0.00971632  0.90095433    -0.22500
C939        C  0.37427631  0.02017559  0.89246618    -0.02500
C940        C  0.37368608  0.02956271  0.86516478    -0.17000
H941        H  0.34543226  0.03927356  0.81406555     0.21000
H942        H  0.29550425  0.99376004  0.89371898     0.19400
H943        H  0.25105665  0.99208442  0.85271260     0.19300
H944        H  0.39017418  0.03921702  0.85338270     0.15200
C945        C  0.33730967  0.19040905  0.97138014     0.30600
C946        C  0.33990634  0.16223434  0.96625335    -0.35700
C947        C  0.36645750  0.15133391  0.96931788     0.16600
C948        C  0.38919320  0.16695559  0.97664942     0.22400
C949        C  0.38644207  0.19524991  0.98238198    -0.33800
C950        C  0.35962300  0.20619774  0.97952122     0.16500
O951        O  0.31436580  0.20469757  0.96915271    -0.25800
C952        C  0.32168274  0.23016100  0.97613351     0.06300
C953        C  0.34967213  0.23225496  0.98314102    -0.30700
O954        O  0.41231130  0.15232067  0.97700749    -0.22500
C955        C  0.40391397  0.12706117  0.97014721    -0.02500
C956        C  0.37562276  0.12535211  0.96531665    -0.17000
H957        H  0.32243738  0.14970290  0.96001947     0.21000
H958        H  0.40394678  0.20785915  0.98832161     0.19400
H959        H  0.36099742  0.25020358  0.99011251     0.19300
H960        H  0.36362970  0.10756701  0.95901941     0.15200
C961        C  0.59933505  0.07619606  0.99566251     0.30600
C962        C  0.62792184  0.07623678  0.98974603    -0.35700
C963        C  0.64362352  0.09729308  0.00228213     0.16600
C964        C  0.63193398  0.11670630  0.01965531     0.22400
C965        C  0.60348442  0.11664306  0.02558797    -0.33800
C966        C  0.58780525  0.09593633  0.01277887     0.16500
O967        O  0.58041321  0.05998595  0.98434273    -0.25800
C968        C  0.55651755  0.06968674  0.99419219     0.06300
C969        C  0.55989538  0.09208869  0.01187765    -0.30700
O970        O  0.64959182  0.13607072  0.02696072    -0.22500
C971        C  0.67310015  0.12924424  0.01417170    -0.02500
C972        C  0.67064872  0.10511050  0.99860068    -0.17000
H973        H  0.63703836  0.06168799  0.97534143     0.21000
H974        H  0.59399739  0.13254470  0.03817779     0.19400
H975        H  0.54398042  0.10452076  0.02157650     0.19300
H976        H  0.68583548  0.09603170  0.98479060     0.15200
C977        C  0.51403237  0.14118251  0.78623762     0.30600
C978        C  0.50253716  0.11582527  0.79439122    -0.35700
C979        C  0.50491221  0.10910285  0.82273965     0.16600
C980        C  0.51745329  0.12627806  0.84183404     0.22400
C981        C  0.52941205  0.15134273  0.83358801    -0.33800
C982        C  0.52723829  0.15793294  0.80523566     0.16500
O983        O  0.51242410  0.15250995  0.76127226    -0.25800
C984        C  0.52485787  0.17685781  0.76426182     0.06300
C985        C  0.53481632  0.18104180  0.79115585    -0.30700
O986        O  0.51527368  0.11707278  0.86760618    -0.22500
C987        C  0.50156581  0.09341474  0.86499050    -0.02500
C988        C  0.49472261  0.08735923  0.83751151    -0.17000
H989        H  0.49171317  0.10266527  0.77983666     0.21000
H990        H  0.53893247  0.16519112  0.84841275     0.19400
H991        H  0.54498887  0.19913466  0.79944519     0.19300
H992        H  0.48258532  0.07024495  0.82979046     0.15200
C993        C  0.41088400  0.00960465  0.40749268     0.30600
C994        C  0.38850027  0.01886320  0.39166416    -0.35700
C995        C  0.38913912  0.01227756  0.36334036     0.16600
C996        C  0.41024993  0.99739995  0.35114007     0.22400
C997        C  0.43323632  0.98880475  0.36692799    -0.33800
C998        C  0.43269123  0.99557439  0.39547154     0.16500
O999        O  0.41244265  0.01050298  0.43481500    -0.25800
C1000       C  0.43588121  0.99747861  0.44064885     0.06300
C1001       C  0.44956441  0.98787934  0.41696684    -0.30700
O1002       O  0.40446058  0.99033008  0.32513103    -0.22500
C1003       C  0.37939445  0.00100375  0.32082668    -0.02500
C1004       C  0.36922198  0.01521908  0.34379016    -0.17000
H1005       H  0.37091793  0.02904560  0.40112893     0.21000
H1006       H  0.44955036  0.97635186  0.35797945     0.19400
H1007       H  0.46777836  0.97496138  0.41597186     0.19300
H1008       H  0.34892353  0.02430146  0.34641712     0.15200
C1009       C  0.38486285  0.83620218  0.50651811     0.30600
C1010       C  0.38345006  0.80764630  0.50203108    -0.35700
C1011       C  0.35692437  0.79584697  0.50370088     0.16600
C1012       C  0.33359827  0.81102613  0.50982611     0.22400
C1013       C  0.33490418  0.83954503  0.51376519    -0.33800
C1014       C  0.36124220  0.85137606  0.51160426     0.16500
O1015       O  0.40753206  0.85144253  0.50713794    -0.25800
C1016       C  0.39809927  0.87671030  0.51214146     0.06300
C1017       C  0.36947173  0.87787419  0.51489361    -0.30700
O1018       O  0.31101839  0.79590755  0.51075801    -0.22500
C1019       C  0.31966800  0.77057346  0.50479400    -0.02500
C1020       C  0.34816608  0.76941847  0.49994446    -0.17000
H1021       H  0.40171986  0.79548350  0.49772478     0.21000
H1022       H  0.31664273  0.85166220  0.51826783     0.19400
H1023       H  0.35673138  0.89550773  0.51997148     0.19300
H1024       H  0.36058437  0.75191674  0.49378388     0.15200
C1025       C  0.32627998  0.99342215  0.60579097     0.30600
C1026       C  0.29822880  0.98701124  0.61041034    -0.35700
C1027       C  0.28669469  0.99694935  0.63535885     0.16600
C1028       C  0.30173005  0.01222302  0.65427295     0.22400
C1029       C  0.32963631  0.01857997  0.64969375    -0.33800
C1030       C  0.34116492  0.00853251  0.62496595     0.17300
O1031       O  0.34182933  0.98482904  0.58484610    -0.25800
C1032       C  0.36694259  0.99448499  0.59089917     0.06300
C1033       C  0.36768456  0.00935875  0.61559620    -0.30700
O1034       O  0.28740999  0.01845597  0.67671671    -0.22500
C1035       C  0.26271936  0.00716894  0.67229398    -0.02500
C1036       C  0.26107762  0.99337877  0.64687825    -0.17000
H1037       H  0.28646894  0.97452963  0.59598078     0.21000
H1038       H  0.34174945  0.02991207  0.66478177     0.19400
H1039       H  0.38548171  0.01840752  0.62577499     0.19300
H1040       H  0.24387977  0.98166209  0.63861649     0.15200
C1041       C  0.48859546  0.09276412  0.59458857     0.30600
C1042       C  0.47974161  0.11215467  0.61409865    -0.35700
C1043       C  0.49367077  0.13730422  0.61388034     0.16600
C1044       C  0.51534704  0.14310208  0.59606325     0.22400
C1045       C  0.52391025  0.12370622  0.57591275    -0.33800
C1046       C  0.50952857  0.09840106  0.57583338     0.16500
O1047       O  0.47876033  0.06770853  0.59215567    -0.25800
C1048       C  0.49309418  0.05686356  0.57128083     0.06300
C1049       C  0.51254479  0.07502395  0.56003417    -0.30700
O1050       O  0.52735385  0.16693019  0.60204797    -0.22500
C1051       C  0.51271390  0.17635514  0.62363000    -0.02500
C1052       C  0.49140073  0.15886505  0.63153798    -0.17000
H1053       H  0.46351716  0.10763708  0.62899005     0.21000
H1054       H  0.54102532  0.12771589  0.56191763     0.19400
H1055       H  0.52697442  0.07138013  0.54317394     0.19300
H1056       H  0.47785833  0.16070441  0.64942624     0.15200
C1057       C  0.41481287  0.59720854  0.48566957     0.30600
C1058       C  0.40020121  0.62063323  0.47716550    -0.35700
C1059       C  0.37169054  0.62061697  0.48270439     0.16600
C1060       C  0.35828929  0.59919225  0.49592560     0.22400
C1061       C  0.37280957  0.57529875  0.50362925    -0.33800
C1062       C  0.40140384  0.57517411  0.49785062     0.16500
O1063       O  0.44198148  0.59437351  0.48555914    -0.25800
C1064       C  0.44612497  0.56986515  0.49715590     0.06300
C1065       C  0.42160751  0.55687341  0.50501495    -0.30700
O1066       O  0.33225019  0.60518527  0.50220727    -0.22500
C1067       C  0.32899564  0.63076448  0.49273963    -0.02500
C1068       C  0.35278284  0.64103296  0.47994000    -0.17000
H1069       H  0.41059087  0.63830881  0.46824148     0.21000
H1070       H  0.36282530  0.55859678  0.51466526     0.19400
H1071       H  0.41923550  0.53787621  0.51652340     0.19300
H1072       H  0.35620731  0.66147805  0.47165858     0.15200
C1073       C  0.61603618  0.52442161  0.35741811     0.30600
C1074       C  0.61818035  0.53476660  0.38439512    -0.35700
C1075       C  0.59884607  0.52490260  0.40351151     0.16600
C1076       C  0.57806286  0.50660077  0.39674014     0.22400
C1077       C  0.57584974  0.49613954  0.36940864    -0.33800
C1078       C  0.59580382  0.50565529  0.35014932     0.16500
O1079       O  0.63431725  0.52846529  0.33763132    -0.25800
C1080       C  0.62608003  0.51215038  0.31709295     0.06300
C1081       C  0.60200764  0.49751931  0.32351438    -0.30700
O1082       O  0.56247077  0.50020095  0.41859783    -0.22500
C1083       C  0.57406803  0.51431393  0.43941070    -0.02500
C1084       C  0.59671850  0.52984515  0.43106536    -0.17000
H1085       H  0.63468995  0.54862695  0.39040258     0.21000
H1086       H  0.56040573  0.48096194  0.36383526     0.19400
H1087       H  0.59227276  0.48134897  0.31150028     0.19300
H1088       H  0.60959328  0.54327568  0.44355731     0.15200
C1089       C  0.49613213  0.36261802  0.61306634     0.30600
C1090       C  0.48660787  0.38977052  0.61502924    -0.35700
C1091       C  0.49260923  0.40691438  0.59242253     0.16600
C1092       C  0.50672055  0.39798557  0.56911355     0.22400
C1093       C  0.51607364  0.37056095  0.56703283    -0.33800
C1094       C  0.51036970  0.35338160  0.58996876     0.16500
O1095       O  0.49549977  0.34440086  0.63327847    -0.25800
C1096       C  0.50952462  0.32295081  0.62334912     0.06300
C1097       C  0.51916335  0.32729169  0.59629360    -0.30700
O1098       O  0.51276948  0.41845435  0.55194550    -0.22500
C1099       C  0.50247001  0.44067002  0.56458896    -0.02500
C1100       C  0.48967655  0.43459943  0.58977396    -0.17000
H1101       H  0.47667694  0.39746128  0.63368997     0.21000
H1102       H  0.52834711  0.36358300  0.54953679     0.19400
H1103       H  0.53249242  0.31409588  0.58403794     0.19300
H1104       H  0.48143761  0.44887010  0.60499239     0.15200
C1105       C  0.63674420  0.35169029  0.98773306     0.30600
C1106       C  0.66350646  0.34094448  0.98465001    -0.35700
C1107       C  0.66722972  0.31371916  0.99353545     0.16600
C1108       C  0.64626318  0.29810542  0.00501607     0.22400
C1109       C  0.61935384  0.30880030  0.00785371    -0.33800
C1110       C  0.61549391  0.33598937  0.99861704     0.16500
O1111       O  0.62857222  0.37648710  0.98024592    -0.25800
C1112       C  0.60163114  0.37667258  0.98610615     0.06300
C1113       C  0.59230696  0.35198797  0.99748978    -0.30700
O1114       O  0.65465789  0.27320532  0.01227813    -0.22500
C1115       C  0.68138656  0.27284725  0.00525501    -0.02500
C1116       C  0.69009245  0.29750187  0.99320519    -0.17000
H1117       H  0.68023187  0.35291409  0.97574298     0.21000
H1118       H  0.60256550  0.29672114  0.01646457     0.19400
H1119       H  0.57145138  0.34656074  0.00369023     0.19300
H1120       H  0.71047833  0.30276604  0.98544352     0.15200
C1121       C  0.53023526  0.36781229  0.84272094     0.30600
C1122       C  0.53766729  0.34157889  0.83353073    -0.35700
C1123       C  0.53221320  0.33589284  0.80563773     0.16600
C1124       C  0.51990289  0.35450093  0.78790951     0.22400
C1125       C  0.51290219  0.38113533  0.79700835    -0.33800
C1126       C  0.51872392  0.38702014  0.82504033     0.16500
O1127       O  0.53355228  0.37717099  0.86808908    -0.25800
C1128       C  0.52442015  0.40286809  0.86683081     0.06300
C1129       C  0.51503931  0.41035824  0.84051498    -0.30700
O1130       O  0.51559586  0.34401189  0.76293918    -0.22500
C1131       C  0.52547380  0.31846680  0.76484198    -0.02500
C1132       C  0.53645523  0.31257871  0.79086020    -0.17000
H1133       H  0.54694902  0.32656787  0.84726249     0.21000
H1134       H  0.50346871  0.39607710  0.78331158     0.19400
H1135       H  0.50683270  0.42998710  0.83384771     0.19300
H1136       H  0.54565328  0.29356677  0.79804011     0.15200
C1137       C  0.61900935  0.52133231  0.12760423     0.30600
C1138       C  0.62073474  0.52736808  0.09912115    -0.35700
C1139       C  0.59951657  0.51674755  0.08242343     0.16600
C1140       C  0.57763755  0.50175852  0.09306654     0.22400
C1141       C  0.57581749  0.49587427  0.12167674    -0.33800
C1142       C  0.59739535  0.50607068  0.13837414     0.16500
O1143       O  0.63858656  0.52597563  0.14602096    -0.25800
C1144       C  0.62965295  0.51353925  0.16903913     0.06300
C1145       C  0.60392362  0.50099117  0.16557488    -0.30700
O1146       O  0.56127487  0.49204098  0.07335690    -0.22500
C1147       C  0.57302582  0.50070329  0.04984480    -0.02500
C1148       C  0.59691747  0.51607539  0.05422901    -0.17000
H1149       H  0.63833651  0.53813230  0.09034858     0.21000
H1150       H  0.55956958  0.48293969  0.13006551     0.19400
H1151       H  0.59302867  0.48781983  0.18008740     0.19300
H1152       H  0.61097641  0.52443105  0.03881728     0.15200
C1153       C  0.36673572  0.37912253  0.99379588     0.30600
C1154       C  0.39449850  0.37664272  0.00171667    -0.35700
C1155       C  0.41155926  0.39924398  0.99603224     0.16600
C1156       C  0.40200009  0.42305741  0.98377609     0.22400
C1157       C  0.37395085  0.42559905  0.97590551    -0.33800
C1158       C  0.35681999  0.40263321  0.98125086     0.16500
O1159       O  0.34824840  0.35928176  0.99481789    -0.25800
C1160       C  0.32587549  0.36979090  0.98273455     0.06300
C1161       C  0.32992205  0.39691628  0.97394396    -0.30700
O1162       O  0.42231310  0.44067368  0.97840028    -0.22500
C1163       C  0.44505265  0.42775274  0.98720590    -0.02500
C1164       C  0.43948330  0.40192801  0.99827994    -0.17000
H1165       H  0.40256226  0.35776520  0.01045293     0.21000
H1166       H  0.36634940  0.44364234  0.96519346     0.19400
H1167       H  0.31584833  0.40976169  0.96225265     0.19300
H1168       H  0.45413828  0.38669024  0.00548140     0.15200
C1169       C  0.86481068  0.87723231  0.49525704     0.30600
C1170       C  0.89008799  0.87389268  0.48138613    -0.35700
C1171       C  0.90971277  0.89474156  0.48519301     0.16600
C1172       C  0.90504830  0.91768859  0.50142246     0.22400
C1173       C  0.87951496  0.92099598  0.51561517    -0.33800
C1174       C  0.85963245  0.89985912  0.51182054     0.16500
O1175       O  0.84444065  0.85923726  0.49541112    -0.25800
C1176       C  0.82541572  0.87014862  0.51213869     0.06300
C1177       C  0.83370232  0.89557009  0.52306387    -0.30700
O1178       O  0.92676249  0.93460802  0.50164608    -0.22500
C1179       C  0.94544903  0.92196770  0.48547793    -0.02500
C1180       C  0.93576890  0.89711923  0.47488451    -0.17000
H1181       H  0.89433174  0.85593763  0.46873041     0.21000
H1182       H  0.87553173  0.93860106  0.52883447     0.19400
H1183       H  0.82297062  0.90813524  0.53823054     0.19300
H1184       H  0.94639362  0.88288257  0.46120680     0.15200
C1185       C  0.63477570  0.87958439  0.49950451     0.30600
C1186       C  0.60680622  0.87651992  0.49225620    -0.35700
C1187       C  0.58908607  0.89798105  0.50013200     0.16600
C1188       C  0.59829078  0.92126239  0.51372714     0.22400
C1189       C  0.62639219  0.92427565  0.52112799    -0.33800
C1190       C  0.64415492  0.90248327  0.51361344     0.16500
O1191       O  0.65393499  0.86053641  0.49682932    -0.25800
C1192       C  0.67613284  0.87094184  0.50950242     0.06300
C1193       C  0.67131525  0.89725283  0.52017516    -0.30700
O1194       O  0.57779221  0.93821529  0.52009912    -0.22500
C1195       C  0.55519875  0.92542082  0.51071066    -0.02500
C1196       C  0.56101716  0.90022081  0.49828378    -0.17000
H1197       H  0.59916343  0.85802869  0.48229188     0.21000
H1198       H  0.63366037  0.94184316  0.53290252     0.19400
H1199       H  0.68491137  0.90952651  0.53306879     0.19300
H1200       H  0.54655860  0.88540207  0.48979312     0.15200
C1201       C  0.66528408  0.69012847  0.52429051     0.30600
C1202       C  0.66336321  0.66171349  0.52852000    -0.35700
C1203       C  0.63744848  0.64986306  0.52357629     0.16600
C1204       C  0.61465045  0.66486286  0.51539360     0.22400
C1205       C  0.61673541  0.69342737  0.51059506    -0.33800
C1206       C  0.64297037  0.70531109  0.51525156     0.16500
O1207       O  0.68768450  0.70510430  0.52782566    -0.25800
C1208       C  0.68014532  0.73045689  0.52069522     0.06300
C1209       C  0.65240530  0.73174624  0.51242548    -0.30700
O1210       O  0.59208250  0.64943424  0.51350723    -0.22500
C1211       C  0.60086668  0.62427249  0.52023929    -0.02500
C1212       C  0.62892593  0.62342169  0.52645782    -0.17000
H1213       H  0.68089782  0.64966499  0.53537165     0.21000
H1214       H  0.59916377  0.70553102  0.50395196     0.19400
H1215       H  0.64098364  0.74931299  0.50478608     0.19300
H1216       H  0.64107942  0.60595558  0.53319040     0.15200
C1217       C  0.85866865  0.71098326  0.51576147     0.30600
C1218       C  0.88390620  0.70310771  0.50338506    -0.35700
C1219       C  0.89014149  0.67479949  0.50394956     0.16600
C1220       C  0.87264818  0.65558972  0.51575765     0.22400
C1221       C  0.84779948  0.66353840  0.52868803    -0.33800
C1222       C  0.84166850  0.69177598  0.52824254     0.16500
O1223       O  0.84736316  0.73577850  0.51507826    -0.25800
C1224       C  0.82278266  0.73244325  0.52735322     0.06300
C1225       C  0.81849577  0.70551970  0.53644856    -0.30700
O1226       O  0.88127973  0.63006330  0.51194821    -0.22500
C1227       C  0.90489224  0.63279614  0.49783165    -0.02500
C1228       C  0.91150145  0.66023847  0.49238778    -0.17000
H1229       H  0.89719180  0.71785353  0.49302020     0.21000
H1230       H  0.83365460  0.64859112  0.53749818     0.19400
H1231       H  0.80008685  0.69692624  0.54597088     0.19300
H1232       H  0.92876396  0.66817834  0.48043407     0.15200
C1233       C  0.47742266  0.85643827  0.88377887     0.30600
C1234       C  0.46370586  0.88170801  0.88295671    -0.35700
C1235       C  0.47397856  0.90223849  0.90047747     0.16600
C1236       C  0.49586043  0.89829199  0.91841773     0.22400
C1237       C  0.50957128  0.87263265  0.91948007    -0.33800
C1238       C  0.49958966  0.85201948  0.90129367     0.16500
O1239       O  0.47348162  0.83617034  0.86611081    -0.25800
C1240       C  0.49319111  0.81813198  0.87213071     0.06300
C1241       C  0.51006391  0.82674430  0.89404133    -0.30700
O1242       O  0.50253077  0.92121024  0.93198183    -0.22500
C1243       C  0.48487648  0.93989378  0.92198456    -0.02500
C1244       C  0.46678863  0.92908286  0.90241199    -0.17000
H1245       H  0.44713169  0.88561471  0.86837093     0.21000
H1246       H  0.52753860  0.86940807  0.93247708     0.19400
H1247       H  0.52888227  0.81719383  0.90143961     0.19300
H1248       H  0.45069688  0.93966239  0.89100960     0.15200
C1249       C  0.48687448  0.63111272  0.87563064     0.30600
C1250       C  0.47971723  0.60324773  0.87408048    -0.35700
C1251       C  0.48694907  0.58713549  0.89700845     0.16600
C1252       C  0.49994762  0.59769680  0.92024714     0.22400
C1253       C  0.50683433  0.62582259  0.92193312    -0.33800
C1254       C  0.50000143  0.64194384  0.89864420     0.16500
O1255       O  0.48464214  0.64893460  0.85523056    -0.25800
C1256       C  0.49650225  0.67168854  0.86499533     0.06300
C1257       C  0.50642714  0.66858557  0.89204580    -0.30700
O1258       O  0.50771601  0.57818157  0.93771609    -0.22500
C1259       C  0.49969522  0.55497123  0.92530142    -0.02500
C1260       C  0.48659277  0.55937432  0.90002291    -0.17000
H1261       H  0.47067423  0.59440475  0.85551707     0.21000
H1262       H  0.51821535  0.63417231  0.93938593     0.19400
H1263       H  0.51814804  0.68320112  0.90429989     0.19300
H1264       H  0.47989039  0.54416210  0.88499021     0.15200
C1265       C  0.48631282  0.85669806  0.70763827     0.30600
C1266       C  0.47459776  0.88170607  0.69892049    -0.35700
C1267       C  0.47889479  0.88872821  0.67087662     0.16600
C1268       C  0.49341941  0.87210600  0.65267466     0.22400
C1269       C  0.50533088  0.84734714  0.66143346    -0.33800
C1270       C  0.50125634  0.84048936  0.68941575     0.16500
O1271       O  0.48371724  0.84528970  0.73245696    -0.25800
C1272       C  0.49721889  0.82151672  0.72996747     0.06300
C1273       C  0.50875176  0.81764789  0.70371725    -0.30700
O1274       O  0.49386767  0.88187297  0.62713653    -0.22500
C1275       C  0.47983570  0.90531440  0.62897314    -0.02500
C1276       C  0.47002558  0.91071635  0.65569587    -0.17000
H1277       H  0.46256406  0.89450800  0.71285229     0.21000
H1278       H  0.51654165  0.83406898  0.64726156     0.19400
H1279       H  0.51999244  0.79993713  0.69600787     0.19300
H1280       H  0.45746786  0.92784227  0.66264824     0.15200
C1281       C  0.49560738  0.64395683  0.70031757     0.30600
C1282       C  0.49432830  0.61609728  0.69231226    -0.35700
C1283       C  0.49811961  0.61073082  0.66377766     0.16600
C1284       C  0.50238015  0.63145007  0.64459244     0.22400
C1285       C  0.50383924  0.65908300  0.65260779    -0.33800
C1286       C  0.50060852  0.66432094  0.68101734     0.16500
O1287       O  0.49353783  0.65382581  0.72587413    -0.25800
C1288       C  0.49755266  0.68086094  0.72289390     0.06300
C1289       C  0.50247873  0.68828414  0.69532634    -0.30700
O1290       O  0.50685760  0.62205261  0.61934428    -0.22500
C1291       C  0.50573664  0.59488964  0.62215725    -0.02500
C1292       C  0.50028899  0.58653459  0.64937518    -0.17000
H1293       H  0.49133882  0.59976501  0.70732227     0.21000
H1294       H  0.50805761  0.67532487  0.63778708     0.19400
H1295       H  0.50736090  0.70838236  0.68694706     0.19300
H1296       H  0.49937765  0.56578875  0.65751853     0.15200
C1297       C  0.90550027  0.49312159  0.85060547     0.30600
C1298       C  0.92465549  0.50430747  0.86964722    -0.35700
C1299       C  0.92555903  0.49182042  0.89609875     0.16600
C1300       C  0.90850712  0.47011237  0.90320227     0.22400
C1301       C  0.89008791  0.45850084  0.88406385    -0.33800
C1302       C  0.88947414  0.47065862  0.85771654     0.16500
O1303       O  0.89829845  0.50367434  0.82625756    -0.25800
C1304       C  0.87775738  0.48738193  0.81766775     0.06300
C1305       C  0.87179281  0.46632507  0.83629626    -0.30700
O1306       O  0.91112491  0.46271595  0.92937279    -0.22500
C1307       C  0.93047463  0.47948168  0.93936322    -0.02500
C1308       C  0.94045301  0.49799450  0.91956278    -0.17000
H1309       H  0.93706020  0.52219941  0.86463830     0.21000
H1310       H  0.87633487  0.44179317  0.88970592     0.19400
H1311       H  0.85466358  0.45194562  0.83556337     0.19300
H1312       H  0.95580948  0.51400577  0.92227170     0.15200
C1313       C  0.88568632  0.48775666  0.63073518     0.30600
C1314       C  0.88645664  0.47927229  0.60297766    -0.35700
C1315       C  0.90801345  0.48996747  0.58688581     0.16600
C1316       C  0.92795120  0.50751348  0.59736894     0.22400
C1317       C  0.92751462  0.51561830  0.62550592    -0.33800
C1318       C  0.90550906  0.50520243  0.64160069     0.16500
O1319       O  0.86535816  0.48279076  0.64821347    -0.25800
C1320       C  0.87207040  0.49707375  0.67077350     0.06300
C1321       C  0.89697052  0.51136498  0.66800568    -0.30700
O1322       O  0.94401957  0.51769168  0.57757020    -0.22500
C1323       C  0.93400837  0.50648748  0.55433933    -0.02500
C1324       C  0.91173023  0.48909007  0.55895316    -0.17000
H1325       H  0.87024553  0.46666710  0.59406130     0.21000
H1326       H  0.94216770  0.53036836  0.63376940     0.19400
H1327       H  0.90634503  0.52554392  0.68260527     0.19300
H1328       H  0.89874819  0.47906772  0.54364822     0.15200
C1329       C  0.69696378  0.50486451  0.83699710     0.30600
C1330       C  0.66907287  0.51200286  0.84021815    -0.35700
C1331       C  0.65651503  0.50354302  0.86503022     0.16600
C1332       C  0.67052051  0.48926225  0.88542608     0.22400
C1333       C  0.69849248  0.48207671  0.88217517    -0.33800
C1334       C  0.71101716  0.49038318  0.85720497     0.16500
O1335       O  0.71212235  0.50939094  0.81474584    -0.25800
C1336       C  0.73631093  0.49782091  0.82068551     0.06300
C1337       C  0.73683290  0.48550177  0.84682351    -0.30700
O1338       O  0.65428321  0.48218092  0.90629533    -0.22500
C1339       C  0.62958182  0.49192262  0.89906776    -0.02500
C1340       C  0.62972449  0.50539664  0.87358003    -0.17000
H1341       H  0.65774245  0.52268780  0.82411670     0.21000
H1342       H  0.70946256  0.47018506  0.89765211     0.19400
H1343       H  0.75334736  0.47372038  0.85622623     0.19300
H1344       H  0.61240923  0.51424645  0.86249547     0.15200
C1345       C  0.70349177  0.49489989  0.64437042     0.30600
C1346       C  0.69364319  0.49161471  0.61699195    -0.35700
C1347       C  0.66516491  0.49641337  0.61298282     0.16600
C1348       C  0.64761177  0.50349210  0.63452822     0.22400
C1349       C  0.65745377  0.50689455  0.66171100    -0.33800
C1350       C  0.68586080  0.50262174  0.66555527     0.16500
O1351       O  0.72934421  0.49188475  0.65300234    -0.25800
C1352       C  0.72824382  0.49793267  0.68010104     0.06300
C1353       C  0.70164482  0.50522872  0.68871183    -0.30700
O1354       O  0.62213786  0.50836876  0.62611954    -0.22500
C1355       C  0.62320732  0.50465435  0.59871995    -0.02500
C1356       C  0.64947927  0.49710358  0.58933782    -0.17000
H1357       H  0.70729607  0.48628334  0.59994021     0.21000
H1358       H  0.64399072  0.51314621  0.67860080     0.19400
H1359       H  0.69481661  0.51157365  0.70920037     0.19300
H1360       H  0.65627583  0.49386622  0.56811158     0.15200
loop_ 
_geom_bond_atom_site_label_1 
_geom_bond_atom_site_label_2 
_geom_bond_distance 
_geom_bond_site_symmetry_2 
_ccdc_geom_bond_type 
N1            C6   1.350       .  A
N1            C5   1.353       .  A
N1           H33   1.043       .  S
N2            C9   1.357       .  A
N2           C10   1.350       .  A
N3            C8   1.357       .  A
N3            C7   1.351       .  A
N3           H34   1.041       .  S
N4           C11   1.350       .  A
N4           C12   1.348       .  A
C5           C13   1.387       .  A
C5           C21   1.413       .  A
C6           C22   1.407       .  A
C6           C14   1.385       .  A
C7           C15   1.389       .  A
C7           C24   1.417       .  A
C8           C23   1.415       .  A
C8           C16   1.385       .  A
C9           C21   1.415       .  A
C9           C17   1.384       .  A
C10          C24   1.417       .  A
C10          C18   1.389       .  A
C11          C19   1.386       .  A
C11          C22   1.407       .  A
C12          C20   1.387       .  A
C12          C23   1.409       .  A
C13          C14   1.374       .  A
C13          H25   1.082       .  S
C14          H26   1.082       .  S
C15          C16   1.381       .  A
C15          H27   1.082       .  S
C16          H28   1.082       .  S
C17          C18   1.376       .  A
C17          H29   1.081       .  S
C18          H30   1.082       .  S
C19          C20   1.373       .  A
C19          H31   1.081       .  S
C20          H32   1.083       .  S
C21        C1352   1.501       .  S
C22        C1336   1.478       .  S
C23        C1304   1.485       .  S
C24        C1320   1.481       .  S
N35          C40   1.349       .  A
N35          C39   1.352       .  A
N35          H67   1.043       .  S
N36          C43   1.354       .  A
N36          C44   1.349       .  A
N37          C42   1.355       .  A
N37          C41   1.354       .  A
N37          H68   1.042       .  S
N38          C45   1.353       .  A
N38          C46   1.350       .  A
C39          C47   1.387       .  A
C39          C55   1.413       .  A
C40          C56   1.409       .  A
C40          C48   1.386       .  A
C41          C49   1.388       .  A
C41          C58   1.418       .  A
C42          C57   1.416       .  A
C42          C50   1.386       .  A
C43          C55   1.412       .  A
C43          C51   1.385       .  A
C44          C58   1.413       .  A
C44          C52   1.387       .  A
C45          C53   1.384       .  A
C45          C56   1.409       .  A
C46          C54   1.388       .  A
C46          C57   1.413       .  A
C47          C48   1.374       .  A
C47          H59   1.082       .  S
C48          H60   1.082       .  S
C49          C50   1.382       .  A
C49          H61   1.082       .  S
C50          H62   1.082       .  S
C51          C52   1.374       .  A
C51          H63   1.081       .  S
C52          H64   1.082       .  S
C53          C54   1.374       .  A
C53          H65   1.082       .  S
C54          H66   1.083       .  S
C55        C1288   1.496       .  S
C56        C1272   1.484       .  S
C57        C1240   1.484       .  S
C58        C1256   1.488       .  S
N69          C74   1.353       .  A
N69          C73   1.353       .  A
N69         H101   1.043       .  S
N70          C77   1.355       .  A
N70          C78   1.351       .  A
N71          C76   1.358       .  A
N71          C75   1.358       .  A
N71         H102   1.041       .  S
N72          C79   1.355       .  A
N72          C80   1.350       .  A
C73          C81   1.387       .  A
C73          C89   1.415       .  A
C74          C90   1.413       .  A
C74          C82   1.386       .  A
C75          C83   1.388       .  A
C75          C92   1.426       .  A
C76          C91   1.425       .  A
C76          C84   1.387       .  A
C77          C89   1.413       .  A
C77          C85   1.384       .  A
C78          C92   1.417       .  A
C78          C86   1.389       .  A
C79          C87   1.384       .  A
C79          C90   1.412       .  A
C80          C88   1.388       .  A
C80          C91   1.415       .  A
C81          C82   1.374       .  A
C81          H93   1.082       .  S
C82          H94   1.082       .  S
C83          C84   1.388       .  A
C83          H95   1.082       .  S
C84          H96   1.082       .  S
C85          C86   1.375       .  A
C85          H97   1.082       .  S
C86          H98   1.083       .  S
C87          C88   1.372       .  A
C87          H99   1.081       .  S
C88         H100   1.083       .  S
C89        C1224   1.497       .  S
C90        C1208   1.498       .  S
C91        C1192   1.496       .  S
C92        C1176   1.495       .  S
O103        C119   1.272       .  A
O103       Zn109   2.010       .  S
C104       C1147   1.470       .  S
C104        O120   1.277       .  A
C104        O117   1.279       .  A
O105        C118   1.274       .  A
O105       Cd112   2.077       .  S
O106        C124   1.279       .  A
O106       Cd115   2.109       .  S
O107        C121   1.275       .  A
O107       Cd111   2.061       .  S
O108        C119   1.275       .  A
O108       Cd111   2.074       .  S
Zn109       O120   2.024   1_556  S
Zn109       O122   2.026       .  S
Zn109       O114   1.934       .  S
O110        C121   1.277       .  A
O110       Cd115   2.093       .  S
Cd111       O113   2.074       .  S
Cd111       O114   1.995       .  S
Cd112       O116   2.057       .  S
Cd112       O125   2.072       .  S
Cd112       O114   1.982       .  S
O113        C123   1.274       .  A
O114       Cd115   1.994       .  S
Cd115       O117   2.092   1_556  S
O116        C123   1.273       .  A
C118       C1112   1.472       .  S
C118        O122   1.273       .  A
C119       C1339   1.466       .  S
C121       C1259   1.468       .  S
C123       C1128   1.462       .  S
C124       C1163   1.478       .  S
C124        O125   1.276       .  A
O126        C142   1.276       .  A
O126       Zn132   2.047       .  S
C127       C1064   1.473       .  S
C127        O143   1.276       .  A
C127        O140   1.280       .  A
O128        C141   1.275       .  A
O128       Cd135   2.076       .  S
O129        C147   1.279       .  A
O129       Cd138   2.103       .  S
O130        C144   1.275       .  A
O130       Cd134   2.049       .  S
O131        C142   1.274       .  A
O131       Cd134   2.061       .  S
Zn132       O143   2.027       .  S
Zn132       O145   2.013       .  S
Zn132       O137   1.938       .  S
O133        C144   1.279       .  A
O133       Cd138   2.105       .  S
Cd134       O136   2.080       .  S
Cd134       O137   1.972       .  S
Cd135       O139   2.084       .  S
Cd135       O148   2.068       .  S
Cd135       O137   1.988       .  S
O136        C146   1.276       .  A
O137       Cd138   1.999       .  S
Cd138       O140   2.099       .  S
O139        C146   1.276       .  A
C141       C1291   1.468       .  S
C141        O145   1.274       .  A
C142       C1211   1.475       .  S
C144       C1083   1.473       .  S
C146       C1355   1.475       .  S
C147       C1099   1.474       .  S
C147        O148   1.277       .  A
O149        C165   1.276       .  A
O149       Zn155   2.036       .  S
C150       C1195   1.477       .  S
C150        O166   1.277       .  A
C150        O163   1.277       .  A
O151        C164   1.275       .  A
O151       Cd158   2.070       .  S
O152        C170   1.279       .  A
O152       Cd161   2.102   1_545  S
O153        C167   1.276       .  A
O153       Cd157   2.067       .  S
O154        C165   1.272       .  A
O154       Cd157   2.051       .  S
Zn155       O166   2.036       .  S
Zn155       O168   2.020       .  S
Zn155       O160   1.944       .  S
O156        C167   1.281       .  A
O156       Cd161   2.107       .  S
Cd157       O159   2.083       .  S
Cd157       O160   1.992       .  S
Cd158       O162   2.058       .  S
Cd158       O171   2.054   1_565  S
Cd158       O160   1.985       .  S
O159        C169   1.274       .  A
O160       Cd161   2.003       .  S
Cd161       O163   2.093       .  S
O162        C169   1.272       .  A
C164       C1275   1.468       .  S
C164        O168   1.274       .  A
C165       C1016   1.468       .  S
C167       C1000   1.472       .  S
C169       C1032   1.470       .  S
C170       C1048   1.470       .  S
C170        O171   1.275       .  A
N172        C177   1.354       .  A
N172        C176   1.350       .  A
N172        H204   1.043       .  S
N173        C180   1.352       .  A
N173        C181   1.350       .  A
N174        C179   1.354       .  A
N174        C178   1.358       .  A
N174        H205   1.041       .  S
N175        C182   1.356       .  A
N175        C183   1.349       .  A
C176        C184   1.387       .  A
C176        C192   1.411       .  A
C177        C193   1.412       .  A
C177        C185   1.386       .  A
C178        C186   1.386       .  A
C178        C195   1.420       .  A
C179        C194   1.419       .  A
C179        C187   1.387       .  A
C180        C192   1.409       .  A
C180        C188   1.385       .  A
C181        C195   1.413       .  A
C181        C189   1.387       .  A
C182        C190   1.383       .  A
C182        C193   1.412       .  A
C183        C191   1.389       .  A
C183        C194   1.416       .  A
C184        C185   1.373       .  A
C184        H196   1.082       .  S
C185        H197   1.082       .  S
C186        C187   1.382       .  A
C186        H198   1.082       .  S
C187        H199   1.082       .  S
C188        C189   1.372       .  A
C188        H200   1.081       .  S
C189        H201   1.082       .  S
C190        C191   1.374       .  A
C190        H202   1.082       .  S
C191        H203   1.083       .  S
C192       C1131   1.485       .  S
C193        C984   1.496       .  S
C194       C1051   1.482       .  S
C195       C1096   1.493       .  S
O206        C222   1.277       .  A
O206       Zn212   2.058       .  S
C207        C968   1.473       .  S
C207        O223   1.278       .  A
C207        O220   1.280       .  A
O208        C221   1.276       .  A
O208       Cd215   2.072       .  S
O209        C227   1.280       .  A
O209       Cd218   2.111   1_565  S
O210        C224   1.274       .  A
O210       Cd214   2.053   1_554  S
O211        C222   1.271       .  A
O211       Cd214   2.037       .  S
Zn212       O223   2.029       .  S
Zn212       O225   2.042       .  S
Zn212       O217   1.942       .  S
O213        C224   1.279       .  A
O213       Cd218   2.104   1_554  S
Cd214       O216   2.086       .  S
Cd214       O217   1.978       .  S
Cd215       O219   2.058       .  S
Cd215       O228   2.068   1_545  S
Cd215       O217   1.968       .  S
O216        C226   1.275       .  A
O217       Cd218   2.003       .  S
Cd218       O220   2.097       .  S
O219        C226   1.273       .  A
C221        C987   1.476       .  S
C221        O225   1.277       .  A
C222        C955   1.471       .  S
C224        C923   1.469       .  S
C226        C939   1.471       .  S
C227       C1243   1.479       .  S
C227        O228   1.278       .  A
N229        C234   1.350       .  A
N229        C233   1.351       .  A
N229        H261   1.043   1_554  S
N230        C237   1.358       .  A
N230        C238   1.352       .  A
N231        C236   1.361       .  A
N231        C235   1.356       .  A
N231        H262   1.040       .  S
N232        C239   1.352       .  A
N232        C240   1.349       .  A
C233        C241   1.386       .  A
C233        C249   1.409       .  A
C234        C250   1.410       .  A
C234        C242   1.387       .  A
C235        C243   1.389       .  A
C235        C252   1.427       .  A
C236        C251   1.426       .  A
C236        C244   1.386       .  A
C237        C249   1.415       .  A
C237        C245   1.383   1_554  A
C238        C252   1.422       .  A
C238        C246   1.390   1_554  A
C239        C247   1.385   1_554  A
C239        C250   1.408       .  A
C240        C248   1.388   1_554  A
C240        C251   1.412       .  A
C241        C242   1.374       .  A
C241        H253   1.082       .  S
C242        H254   1.082       .  S
C243        C244   1.386       .  A
C243        H255   1.082       .  S
C244        H256   1.082       .  S
C245        C246   1.374       .  A
C245        H257   1.081       .  S
C246        H258   1.082       .  S
C247        C248   1.371       .  A
C247        H259   1.081       .  S
C248        H260   1.082       .  S
C249       C1115   1.496       .  S
C250        C907   1.485       .  S
C251        C891   1.497       .  S
C252        C971   1.493       .  S
N263        C268   1.352       .  A
N263        C267   1.351       .  A
N263        H295   1.041       .  S
N264        C271   1.354       .  A
N264        C272   1.351       .  A
N265        C270   1.356       .  A
N265        C269   1.356       .  A
N265        H296   1.041       .  S
N266        C273   1.353       .  A
N266        C274   1.349       .  A
C267        C275   1.387   1_545  A
C267        C283   1.411       .  A
C268        C284   1.412       .  A
C268        C276   1.387   1_545  A
C269        C277   1.387   1_545  A
C269        C286   1.419       .  A
C270        C285   1.419       .  A
C270        C278   1.387   1_545  A
C271        C283   1.413       .  A
C271        C279   1.385       .  A
C272        C286   1.415       .  A
C272        C280   1.387       .  A
C273        C281   1.385       .  A
C273        C284   1.411       .  A
C274        C282   1.388       .  A
C274        C285   1.412       .  A
C275        C276   1.375       .  A
C275        H287   1.082       .  S
C276        H288   1.082       .  S
C277        C278   1.384       .  A
C277        H289   1.082       .  S
C278        H290   1.082       .  S
C279        C280   1.373       .  A
C279        H291   1.081       .  S
C280        H292   1.082       .  S
C281        C282   1.373       .  A
C281        H293   1.082       .  S
C282        H294   1.083       .  S
C283        C936   1.488       .  S
C284       C1035   1.486       .  S
C285        C875   1.485       .  S
C286        C859   1.492       .  S
N297        C302   1.354       .  A
N297        C301   1.352       .  A
N297        H329   1.042       .  S
N298        C305   1.353       .  A
N298        C306   1.350       .  A
N299        C304   1.354       .  A
N299        C303   1.357       .  A
N299        H330   1.041       .  S
N300        C307   1.356       .  A
N300        C308   1.351       .  A
C301        C309   1.387   1_655  A
C301        C317   1.414       .  A
C302        C318   1.415       .  A
C302        C310   1.387   1_655  A
C303        C311   1.387   1_655  A
C303        C320   1.420       .  A
C304        C319   1.420       .  A
C304        C312   1.387   1_655  A
C305        C317   1.413       .  A
C305        C313   1.386       .  A
C306        C320   1.411       .  A
C306        C314   1.386       .  A
C307        C315   1.384       .  A
C307        C318   1.413       .  A
C308        C316   1.389       .  A
C308        C319   1.418       .  A
C309        C310   1.375       .  A
C309        H321   1.082       .  S
C310        H322   1.082       .  S
C311        C312   1.384       .  A
C311        H323   1.082       .  S
C312        H324   1.082       .  S
C313        C314   1.373       .  A
C313        H325   1.081       .  S
C314        H326   1.083       .  S
C315        C316   1.372       .  A
C315        H327   1.082       .  S
C316        H328   1.082       .  S
C317        C824   1.490       .  S
C318        C843   1.497       .  S
C319        C792   1.486       .  S
C320        C808   1.491       .  S
N331        C336   1.351       .  A
N331        C335   1.350       .  A
N331        H363   1.046       .  S
N332        C339   1.354       .  A
N332        C340   1.351       .  A
N333        C338   1.355       .  A
N333        C337   1.354       .  A
N333        H364   1.045       .  S
N334        C341   1.354       .  A
N334        C342   1.349       .  A
C335        C343   1.387       .  A
C335        C351   1.411       .  A
C336        C352   1.413       .  A
C336        C344   1.388       .  A
C337        C345   1.387       .  A
C337        C354   1.419       .  A
C338        C353   1.420       .  A
C338        C346   1.388       .  A
C339        C351   1.411       .  A
C339        C347   1.385       .  A
C340        C354   1.414       .  A
C340        C348   1.388       .  A
C341        C349   1.386       .  A
C341        C352   1.413       .  A
C342        C350   1.386       .  A
C342        C353   1.413       .  A
C343        C344   1.375       .  A
C343        H355   1.082       .  S
C344        H356   1.082       .  S
C345        C346   1.385       .  A
C345        H357   1.082       .  S
C346        H358   1.082       .  S
C347        C348   1.371       .  A
C347        H359   1.082       .  S
C348        H360   1.082       .  S
C349        C350   1.373       .  A
C349        H361   1.081       .  S
C350        H362   1.083       .  S
C351        C779   1.486       .  S
C352       C1019   1.492       .  S
C353       C1067   1.493       .  S
C354        C760   1.486       .  S
N365        C370   1.353       .  A
N365        C369   1.349       .  A
N365        H397   1.043       .  S
N366        C373   1.353       .  A
N366        C374   1.350       .  A
N367        C372   1.354       .  A
N367        C371   1.356       .  A
N367        H398   1.041       .  S
N368        C375   1.354       .  A
N368        C376   1.349       .  A
C369        C377   1.387       .  A
C369        C385   1.411       .  A
C370        C386   1.412       .  A
C370        C378   1.386       .  A
C371        C379   1.387       .  A
C371        C388   1.419       .  A
C372        C387   1.417       .  A
C372        C380   1.387       .  A
C373        C385   1.411       .  A
C373        C381   1.386       .  A
C374        C388   1.413       .  A
C374        C382   1.387       .  A
C375        C383   1.383       .  A
C375        C386   1.410       .  A
C376        C384   1.390       .  A
C376        C387   1.415       .  A
C377        C378   1.375       .  A
C377        H389   1.082       .  S
C378        H390   1.082       .  S
C379        C380   1.383       .  A
C379        H391   1.082       .  S
C380        H392   1.082       .  S
C381        C382   1.372       .  A
C381        H393   1.081       .  S
C382        H394   1.082       .  S
C383        C384   1.373       .  A
C383        H395   1.082       .  S
C384        H396   1.082       .  S
C385        C744   1.489       .  S
C386        C728   1.493       .  S
C387       C1080   1.481       .  S
C388       C1144   1.489       .  S
O399        C415   1.279       .  A
O399       Zn405   2.067       .  S
C400       C1323   1.464       .  S
C400        O416   1.278       .  A
C400        O413   1.277       .  A
O401        C414   1.277       .  A
O401       Cd408   2.091       .  S
O402        C420   1.280       .  A
O402       Cd411   2.108   1_455  S
O403        C417   1.275       .  A
O403       Cd407   2.065       .  S
O404        C415   1.270       .  A
O404       Cd407   2.045       .  S
Zn405       O416   2.021       .  S
Zn405       O418   2.046       .  S
Zn405       O410   1.946       .  S
O406        C417   1.282       .  A
O406       Cd411   2.128       .  S
Cd407       O409   2.085       .  S
Cd407       O410   1.988       .  S
Cd408       O412   2.054       .  S
Cd408       O421   2.076   1_655  S
Cd408       O410   1.985       .  S
O409        C419   1.276       .  A
O410       Cd411   2.016       .  S
Cd411       O413   2.084       .  S
O412        C419   1.273       .  A
C414       C1227   1.482       .  S
C414        O418   1.276       .  A
C415        C731   1.474       .  S
C417        C712   1.485       .  S
C419        C827   1.469       .  S
C420        C763   1.479       .  S
C420        O421   1.278       .  A
O422        C438   1.276       .  A
O422       Zn428   2.050       .  S
C423       C1179   1.489       .  S
C423        O439   1.277       .  A
C423        O436   1.282       .  A
O424        C437   1.277       .  A
O424       Cd431   2.100       .  S
O425        C443   1.280       .  A
O425       Cd434   2.102   1_545  S
O426        C440   1.274       .  A
O426       Cd430   2.061       .  S
O427        C438   1.271       .  A
O427       Cd430   2.044       .  S
Zn428       O439   2.021   1_455  S
Zn428       O441   2.018       .  S
Zn428       O433   1.947       .  S
O429        C440   1.279       .  A
O429       Cd434   2.105       .  S
Cd430       O432   2.096       .  S
Cd430       O433   2.003       .  S
Cd431       O435   2.067       .  S
Cd431       O444   2.095   1_565  S
Cd431       O433   2.001       .  S
O432        C442   1.276       .  A
O433       Cd434   2.021       .  S
Cd434       O436   2.126   1_455  S
O435        C442   1.275       .  A
C437        C840   1.478       .  S
C437        O441   1.273       .  A
C438        C776   1.471       .  S
C440        C872   1.473       .  S
C442        C696   1.477       .  S
C443        C680   1.477       .  S
C443        O444   1.280       .  A
O445        C461   1.276       .  A
O445       Zn451   2.036       .  S
C446        C648   1.470       .  S
C446        O462   1.275       .  A
C446        O459   1.280       .  A
O447        C460   1.276       .  A
O447       Cd454   2.087       .  S
O448        C466   1.279       .  A
O448       Cd457   2.099       .  S
O449        C463   1.273       .  A
O449       Cd453   2.056   1_556  S
O450        C461   1.271       .  A
O450       Cd453   2.044       .  S
Zn451       O462   1.999   1_655  S
Zn451       O464   2.017       .  S
Zn451       O456   1.934       .  S
O452        C463   1.279       .  A
O452       Cd457   2.107   1_556  S
Cd453       O455   2.072       .  S
Cd453       O456   1.982       .  S
Cd454       O458   2.062       .  S
Cd454       O467   2.083       .  S
Cd454       O456   1.989       .  S
O455        C465   1.275       .  A
O456       Cd457   2.009       .  S
Cd457       O459   2.103   1_655  S
O458        C465   1.273       .  A
C460        C664   1.475       .  S
C460        O464   1.271       .  A
C461        C904   1.464       .  S
C463       C1307   1.473       .  S
C465        C747   1.464       .  S
C466        C811   1.475       .  S
C466        O467   1.279       .  A
N468        C473   1.355       .  A
N468        C472   1.354       .  A
N468        H500   1.042       .  S
N469        C476   1.352       .  A
N469        C477   1.350       .  A
N470        C475   1.352   1_565  A
N470        C474   1.354   1_565  A
N470        H501   1.041       .  S
N471        C478   1.354       .  A
N471        C479   1.351       .  A
C472        C480   1.388   1_565  A
C472        C488   1.418       .  A
C473        C489   1.416       .  A
C473        C481   1.386   1_565  A
C474        C482   1.387       .  A
C474        C491   1.415   1_545  A
C475        C490   1.414       .  A
C475        C483   1.387       .  A
C476        C488   1.412       .  A
C476        C484   1.386       .  A
C477        C491   1.412       .  A
C477        C485   1.386       .  A
C478        C486   1.385       .  A
C478        C489   1.413       .  A
C479        C487   1.387       .  A
C479        C490   1.414   1_565  A
C480        C481   1.377       .  A
C480        H492   1.082       .  S
C481        H493   1.082       .  S
C482        C483   1.383       .  A
C482        H494   1.082       .  S
C483        H495   1.082       .  S
C484        C485   1.373       .  A
C484        H496   1.081       .  S
C485        H497   1.083       .  S
C486        C487   1.372       .  A
C486        H498   1.081       .  S
C487        H499   1.082       .  S
C488        C699   1.494       .  S
C489        C632   1.494       .  S
C490        C920   1.481       .  S
C491       C1003   1.489   1_565  S
O502        C518   1.277       .  A
O502       Zn508   2.040       .  S
C503        C888   1.490       .  S
C503        O519   1.278       .  A
C503        O516   1.281       .  A
O504        C517   1.274       .  A
O504       Cd511   2.078       .  S
O505        C523   1.282       .  A
O505       Cd514   2.124   1_565  S
O506        C520   1.277       .  A
O506       Cd510   2.071   1_556  S
O507        C518   1.274       .  A
O507       Cd510   2.070       .  S
Zn508       O519   2.036   1_455  S
Zn508       O521   1.998       .  S
Zn508       O513   1.933       .  S
O509        C520   1.282       .  A
O509       Cd514   2.115   1_556  S
Cd510       O512   2.105       .  S
Cd510       O513   2.004       .  S
Cd511       O515   2.061       .  S
Cd511       O524   2.044   1_545  S
Cd511       O513   1.992       .  S
O512        C522   1.277       .  A
O513       Cd514   2.018       .  S
Cd514       O516   2.120   1_455  S
O515        C522   1.273       .  A
C517        C619   1.464       .  S
C517        O521   1.272       .  A
C518        C600   1.474       .  S
C520        C856   1.474       .  S
C522        C635   1.478       .  S
C523        C795   1.474       .  S
C523        O524   1.273       .  A
N525        C530   1.351       .  A
N525        C529   1.350       .  A
N525        H557   1.043       .  S
N526        C533   1.353       .  A
N526        C534   1.348       .  A
N527        C532   1.358       .  A
N527        C531   1.359       .  A
N527        H558   1.040       .  S
N528        C535   1.356       .  A
N528        C536   1.352       .  A
C529        C537   1.387   1_455  A
C529        C545   1.412       .  A
C530        C546   1.410       .  A
C530        C538   1.386   1_455  A
C531        C539   1.387   1_455  A
C531        C548   1.425       .  A
C532        C547   1.425       .  A
C532        C540   1.387   1_455  A
C533        C545   1.409       .  A
C533        C541   1.384       .  A
C534        C548   1.414       .  A
C534        C542   1.389       .  A
C535        C543   1.384       .  A
C535        C546   1.413       .  A
C536        C544   1.388       .  A
C536        C547   1.419       .  A
C537        C538   1.374       .  A
C537        H549   1.082       .  S
C538        H550   1.082       .  S
C539        C540   1.387       .  A
C539        H551   1.082       .  S
C540        H552   1.082       .  S
C541        C542   1.374       .  A
C541        H553   1.082       .  S
C542        H554   1.083       .  S
C543        C544   1.373       .  A
C543        H555   1.082       .  S
C544        H556   1.082       .  S
C545        C616   1.489       .  S
C546        C667   1.493       .  S
C547        C715   1.499   1_455  S
C548        C683   1.494       .  S
N559        C564   1.352       .  A
N559        C563   1.352       .  A
N559        H591   1.043       .  S
N560        C567   1.355       .  A
N560        C568   1.350       .  A
N561        C566   1.357       .  A
N561        C565   1.354       .  A
N561        H592   1.042       .  S
N562        C569   1.353       .  A
N562        C570   1.350       .  A
C563        C571   1.387       .  A
C563        C579   1.413       .  A
C564        C580   1.412       .  A
C564        C572   1.387       .  A
C565        C573   1.387       .  A
C565        C582   1.419       .  A
C566        C581   1.420       .  A
C566        C574   1.386       .  A
C567        C579   1.413       .  A
C567        C575   1.385       .  A
C568        C582   1.416       .  A
C568        C576   1.388       .  A
C569        C577   1.385       .  A
C569        C580   1.411       .  A
C570        C578   1.387       .  A
C570        C581   1.411       .  A
C571        C572   1.374       .  A
C571        H583   1.082   1_556  S
C572        H584   1.082   1_556  S
C573        C574   1.383       .  A
C573        H585   1.082   1_556  S
C574        H586   1.082   1_556  S
C575        C576   1.374       .  A
C575        H587   1.082       .  S
C576        H588   1.083       .  S
C577        C578   1.373       .  A
C577        H589   1.081       .  S
C578        H590   1.083       .  S
C579        C603   1.493       .  S
C580        C952   1.490       .  S
C581       C1160   1.494       .  S
C582        C651   1.485       .  S
C593        C598   1.380   1_556  A
C593        C594   1.403       .  A
C593        O599   1.319       .  A
C594        C595   1.402       .  A
C594        H605   1.082       .  S
C595        C604   1.359       .  A
C595        C596   1.379       .  A
C596        C597   1.406   1_556  A
C596        O602   1.322       .  A
C597        C598   1.406       .  A
C597        H606   1.082       .  S
C598        C601   1.366       .  A
O599        C600   1.331   1_556  A
C600        C601   1.393       .  A
C601        H607   1.082       .  S
O602        C603   1.333       .  A
C603        C604   1.394       .  A
C604        H608   1.083       .  S
C609        C614   1.379       .  A
C609        C610   1.410       .  A
C609        O615   1.324       .  A
C610        C611   1.409       .  A
C610        H621   1.082       .  S
C611        C620   1.369       .  A
C611        C612   1.381       .  A
C612        C613   1.395       .  A
C612        O618   1.311       .  A
C613        C614   1.394       .  A
C613        H622   1.082       .  S
C614        C617   1.350       .  A
O615        C616   1.335       .  A
C616        C617   1.389       .  A
C617        H623   1.083       .  S
O618        C619   1.326       .  A
C619        C620   1.394       .  A
C620        H624   1.082       .  S
C625        C630   1.380   1_565  A
C625        C626   1.401       .  A
C625        O631   1.319       .  A
C626        C627   1.401       .  A
C626        H637   1.082       .  S
C627        C636   1.357       .  A
C627        C628   1.380   1_565  A
C628        C629   1.409       .  A
C628        O634   1.326       .  A
C629        C630   1.409       .  A
C629        H638   1.082       .  S
C630        C633   1.366       .  A
O631        C632   1.331       .  A
C632        C633   1.397   1_565  A
C633        H639   1.082       .  S
O634        C635   1.334       .  A
C635        C636   1.391   1_545  A
C636        H640   1.083       .  S
C641        C646   1.380   1_554  A
C641        C642   1.396       .  A
C641        O647   1.312       .  A
C642        C643   1.395       .  A
C642        H653   1.083       .  S
C643        C652   1.354       .  A
C643        C644   1.380   1_554  A
C644        C645   1.412       .  A
C644        O650   1.326       .  A
C645        C646   1.411       .  A
C645        H654   1.082       .  S
C646        C649   1.374       .  A
O647        C648   1.327       .  A
C648        C649   1.396   1_554  A
C649        H655   1.082       .  S
O650        C651   1.335       .  A
C651        C652   1.388   1_556  A
C652        H656   1.083       .  S
C657        C662   1.380   1_455  A
C657        C658   1.405       .  A
C657        O663   1.321       .  A
C658        C659   1.405       .  A
C658        H669   1.082       .  S
C659        C668   1.362       .  A
C659        C660   1.379   1_455  A
C660        C661   1.404       .  A
C660        O666   1.321       .  A
C661        C662   1.404       .  A
C661        H670   1.082       .  S
C662        C665   1.364       .  A
O663        C664   1.333   1_455  A
C664        C665   1.391       .  A
C665        H671   1.082       .  S
O666        C667   1.332   1_655  A
C667        C668   1.396       .  A
C668        H672   1.083       .  S
C673        C678   1.380   1_655  A
C673        C674   1.402       .  A
C673        O679   1.322       .  A
C674        C675   1.403       .  A
C674        H685   1.082       .  S
C675        C684   1.358       .  A
C675        C676   1.380   1_655  A
C676        C677   1.411       .  A
C676        O682   1.328       .  A
C677        C678   1.412       .  A
C677        H686   1.082       .  S
C678        C681   1.369       .  A
O679        C680   1.330   1_655  A
C680        C681   1.395       .  A
C681        H687   1.082       .  S
O682        C683   1.335       .  A
C683        C684   1.393   1_455  A
C684        H688   1.083       .  S
C689        C694   1.380       .  A
C689        C690   1.411       .  A
C689        O695   1.328       .  A
C690        C691   1.412       .  A
C690        H701   1.082       .  S
C691        C700   1.368       .  A
C691        C692   1.379       .  A
C692        C693   1.397       .  A
C692        O698   1.315       .  A
C693        C694   1.397       .  A
C693        H702   1.082       .  S
C694        C697   1.352       .  A
O695        C696   1.336       .  A
C696        C697   1.388       .  A
C697        H703   1.083       .  S
O698        C699   1.329       .  A
C699        C700   1.400       .  A
C700        H704   1.082       .  S
C705        C710   1.379       .  A
C705        C706   1.401       .  A
C705        O711   1.317       .  A
C706        C707   1.401       .  A
C706        H717   1.082       .  S
C707        C716   1.358       .  A
C707        C708   1.379       .  A
C708        C709   1.415   1_655  A
C708        O714   1.330   1_655  A
C709        C710   1.415   1_455  A
C709        H718   1.082       .  S
C710        C713   1.377   1_655  A
O711        C712   1.331       .  A
C712        C713   1.399   1_655  A
C713        H719   1.082       .  S
O714        C715   1.337   1_455  A
C715        C716   1.393       .  A
C716        H720   1.083       .  S
C721        C726   1.379       .  A
C721        C722   1.409       .  A
C721        O727   1.323       .  A
C722        C723   1.408       .  A
C722        H733   1.082       .  S
C723        C732   1.371       .  A
C723        C724   1.380       .  A
C724        C725   1.402       .  A
C724        O730   1.316       .  A
C725        C726   1.400       .  A
C725        H734   1.082       .  S
C726        C729   1.360       .  A
O727        C728   1.334       .  A
C728        C729   1.393       .  A
C729        H735   1.083       .  S
O730        C731   1.331       .  A
C731        C732   1.394       .  A
C732        H736   1.082       .  S
C737        C742   1.379       .  A
C737        C738   1.406       .  A
C737        O743   1.320       .  A
C738        C739   1.405       .  A
C738        H749   1.082       .  S
C739        C748   1.365       .  A
C739        C740   1.381       .  A
C740        C741   1.398       .  A
C740        O746   1.313       .  A
C741        C742   1.396       .  A
C741        H750   1.082       .  S
C742        C745   1.353       .  A
O743        C744   1.333       .  A
C744        C745   1.392       .  A
C745        H751   1.082       .  S
O746        C747   1.328       .  A
C747        C748   1.392       .  A
C748        H752   1.082       .  S
C753        C758   1.380       .  A
C753        C754   1.399       .  A
C753        O759   1.314       .  A
C754        C755   1.398       .  A
C754        H765   1.082       .  S
C755        C764   1.356       .  A
C755        C756   1.379       .  A
C756        C757   1.413       .  A
C756        O762   1.328       .  A
C757        C758   1.413       .  A
C757        H766   1.082       .  S
C758        C761   1.374       .  A
O759        C760   1.329       .  A
C760        C761   1.397       .  A
C761        H767   1.082       .  S
O762        C763   1.336       .  A
C763        C764   1.389       .  A
C764        H768   1.083       .  S
C769        C774   1.381       .  A
C769        C770   1.407       .  A
C769        O775   1.324       .  A
C770        C771   1.407       .  A
C770        H781   1.082       .  S
C771        C780   1.364       .  A
C771        C772   1.380       .  A
C772        C773   1.398       .  A
C772        O778   1.316       .  A
C773        C774   1.399       .  A
C773        H782   1.082       .  S
C774        C777   1.354       .  A
O775        C776   1.333       .  A
C776        C777   1.390       .  A
C777        H783   1.083       .  S
O778        C779   1.329       .  A
C779        C780   1.395       .  A
C780        H784   1.082       .  S
C785        C790   1.379   1_655  A
C785        C786   1.412       .  A
C785        O791   1.326       .  A
C786        C787   1.411       .  A
C786        H797   1.082       .  S
C787        C796   1.374       .  A
C787        C788   1.380   1_655  A
C788        C789   1.398       .  A
C788        O794   1.313       .  A
C789        C790   1.397       .  A
C789        H798   1.083       .  S
C790        C793   1.355       .  A
O791        C792   1.335       .  A
C792        C793   1.389   1_655  A
C793        H799   1.083       .  S
O794        C795   1.329       .  A
C795        C796   1.396   1_455  A
C796        H800   1.082       .  S
C801        C806   1.380   1_455  A
C801        C802   1.402       .  A
C801        O807   1.315       .  A
C802        C803   1.400       .  A
C802        H813   1.082       .  S
C803        C812   1.362       .  A
C803        C804   1.380   1_455  A
C804        C805   1.411       .  A
C804        O810   1.324       .  A
C805        C806   1.410       .  A
C805        H814   1.082       .  S
C806        C809   1.373       .  A
O807        C808   1.331   1_455  A
C808        C809   1.396       .  A
C809        H815   1.082       .  S
O810        C811   1.334       .  A
C811        C812   1.390   1_655  A
C812        H816   1.083       .  S
C817        C822   1.379       .  A
C817        C818   1.399       .  A
C817        O823   1.314       .  A
C818        C819   1.398       .  A
C818        H829   1.082       .  S
C819        C828   1.355       .  A
C819        C820   1.380       .  A
C820        C821   1.406       .  A
C820        O826   1.322       .  A
C821        C822   1.406       .  A
C821        H830   1.082       .  S
C822        C825   1.364       .  A
O823        C824   1.330       .  A
C824        C825   1.397       .  A
C825        H831   1.082       .  S
O826        C827   1.332       .  A
C827        C828   1.390       .  A
C828        H832   1.083       .  S
C833        C838   1.380   1_655  A
C833        C834   1.403       .  A
C833        O839   1.318       .  A
C834        C835   1.401       .  A
C834        H845   1.082       .  S
C835        C844   1.360       .  A
C835        C836   1.379   1_655  A
C836        C837   1.410       .  A
C836        O842   1.325       .  A
C837        C838   1.410       .  A
C837        H846   1.082       .  S
C838        C841   1.371       .  A
O839        C840   1.331   1_655  A
C840        C841   1.396       .  A
C841        H847   1.082       .  S
O842        C843   1.336   1_455  A
C843        C844   1.393       .  A
C844        H848   1.082       .  S
C849        C854   1.380   1_565  A
C849        C850   1.401       .  A
C849        O855   1.318       .  A
C850        C851   1.401       .  A
C850        H861   1.082       .  S
C851        C860   1.357       .  A
C851        C852   1.380   1_565  A
C852        C853   1.411       .  A
C852        O858   1.327       .  A
C853        C854   1.411       .  A
C853        H862   1.082       .  S
C854        C857   1.370       .  A
O855        C856   1.330   1_565  A
C856        C857   1.395       .  A
C857        H863   1.082       .  S
O858        C859   1.335       .  A
C859        C860   1.392   1_545  A
C860        H864   1.083       .  S
C865        C870   1.380       .  A
C865        C866   1.399       .  A
C865        O871   1.316       .  A
C866        C867   1.399       .  A
C866        H877   1.082       .  S
C867        C876   1.356       .  A
C867        C868   1.380   1_565  A
C868        C869   1.411       .  A
C868        O874   1.326       .  A
C869        C870   1.410   1_545  A
C869        H878   1.082       .  S
C870        C873   1.371   1_565  A
O871        C872   1.329       .  A
C872        C873   1.395   1_565  A
C873        H879   1.082       .  S
O874        C875   1.335       .  A
C875        C876   1.389   1_545  A
C876        H880   1.083       .  S
C881        C886   1.378       .  A
C881        C882   1.415       .  A
C881        O887   1.330       .  A
C882        C883   1.414       .  A
C882        H893   1.082   1_554  S
C883        C892   1.377       .  A
C883        C884   1.379       .  A
C884        C885   1.404       .  A
C884        O890   1.318       .  A
C885        C886   1.403       .  A
C885        H894   1.082       .  S
C886        C889   1.362       .  A
O887        C888   1.337       .  A
C888        C889   1.393       .  A
C889        H895   1.083       .  S
O890        C891   1.333       .  A
C891        C892   1.398       .  A
C892        H896   1.082   1_554  S
C897        C902   1.381       .  A
C897        C898   1.399   1_554  A
C897        O903   1.314       .  A
C898        C899   1.398   1_556  A
C898        H909   1.082       .  S
C899        C908   1.355   1_554  A
C899        C900   1.380       .  A
C900        C901   1.405       .  A
C900        O906   1.319       .  A
C901        C902   1.404       .  A
C901        H910   1.082       .  S
C902        C905   1.365       .  A
O903        C904   1.329       .  A
C904        C905   1.391       .  A
C905        H911   1.082       .  S
O906        C907   1.332       .  A
C907        C908   1.391   1_554  A
C908        H912   1.083       .  S
C913        C918   1.380       .  A
C913        C914   1.409   1_545  A
C913        O919   1.323   1_545  A
C914        C915   1.408   1_565  A
C914        H925   1.082       .  S
C915        C924   1.370   1_545  A
C915        C916   1.380       .  A
C916        C917   1.399       .  A
C916        O922   1.314       .  A
C917        C918   1.398       .  A
C917        H926   1.083       .  S
C918        C921   1.356       .  A
O919        C920   1.333   1_565  A
C920        C921   1.389       .  A
C921        H927   1.083       .  S
O922        C923   1.329       .  A
C923        C924   1.393   1_545  A
C924        H928   1.082       .  S
C929        C934   1.380       .  A
C929        C930   1.399       .  A
C929        O935   1.316       .  A
C930        C931   1.399       .  A
C930        H941   1.082       .  S
C931        C940   1.355       .  A
C931        C932   1.380       .  A
C932        C933   1.407       .  A
C932        O938   1.323       .  A
C933        C934   1.406       .  A
C933        H942   1.082   1_545  S
C934        C937   1.365       .  A
O935        C936   1.330       .  A
C936        C937   1.395       .  A
C937        H943   1.082   1_545  S
O938        C939   1.332       .  A
C939        C940   1.390       .  A
C940        H944   1.083       .  S
C945        C950   1.379       .  A
C945        C946   1.396       .  A
C945        O951   1.313       .  A
C946        C947   1.396       .  A
C946        H957   1.083       .  S
C947        C956   1.352       .  A
C947        C948   1.380       .  A
C948        C949   1.408       .  A
C948        O954   1.325       .  A
C949        C950   1.408       .  A
C949        H958   1.082       .  S
C950        C953   1.366       .  A
O951        C952   1.329       .  A
C952        C953   1.398       .  A
C953        H959   1.082       .  S
O954        C955   1.333       .  A
C955        C956   1.389       .  A
C956        H960   1.083       .  S
C961        C966   1.380   1_556  A
C961        C962   1.409       .  A
C961        O967   1.323       .  A
C962        C963   1.408   1_556  A
C962        H973   1.082       .  S
C963        C972   1.370   1_554  A
C963        C964   1.380       .  A
C964        C965   1.403       .  A
C964        O970   1.317       .  A
C965        C966   1.401       .  A
C965        H974   1.082       .  S
C966        C969   1.362       .  A
O967        C968   1.333       .  A
C968        C969   1.390   1_556  A
C969        H975   1.083       .  S
O970        C971   1.332       .  A
C971        C972   1.395   1_554  A
C972        H976   1.082       .  S
C977        C982   1.379       .  A
C977        C978   1.406       .  A
C977        O983   1.323       .  A
C978        C979   1.406       .  A
C978        H989   1.082       .  S
C979        C988   1.364       .  A
C979        C980   1.380       .  A
C980        C981   1.404       .  A
C980        O986   1.321       .  A
C981        C982   1.404       .  A
C981        H990   1.082       .  S
C982        C985   1.361       .  A
O983        C984   1.334       .  A
C984        C985   1.395       .  A
C985        H991   1.082       .  S
O986        C987   1.332       .  A
C987        C988   1.393       .  A
C988        H992   1.082       .  S
C993        C998   1.381   1_545  A
C993        C994   1.399       .  A
C993        O999   1.316       .  A
C994        C995   1.398       .  A
C994       H1005   1.082       .  S
C995       C1004   1.354       .  A
C995        C996   1.380   1_545  A
C996        C997   1.410       .  A
C996       O1002   1.326       .  A
C997        C998   1.411       .  A
C997       H1006   1.082       .  S
C998       C1001   1.370       .  A
O999       C1000   1.328   1_545  A
C1000      C1001   1.395       .  A
C1001      H1007   1.082       .  S
O1002      C1003   1.334   1_565  A
C1003      C1004   1.390       .  A
C1004      H1008   1.083       .  S
C1009      C1014   1.380       .  A
C1009      C1010   1.405       .  A
C1009      O1015   1.321       .  A
C1010      C1011   1.405       .  A
C1010      H1021   1.082       .  S
C1011      C1020   1.363       .  A
C1011      C1012   1.379       .  A
C1012      C1013   1.400       .  A
C1012      O1018   1.315       .  A
C1013      C1014   1.399       .  A
C1013      H1022   1.082       .  S
C1014      C1017   1.356       .  A
O1015      C1016   1.331       .  A
C1016      C1017   1.390       .  A
C1017      H1023   1.083       .  S
O1018      C1019   1.331       .  A
C1019      C1020   1.397       .  A
C1020      H1024   1.082       .  S
C1025      C1030   1.380   1_565  A
C1025      C1026   1.407       .  A
C1025      O1031   1.322       .  A
C1026      C1027   1.406       .  A
C1026      H1037   1.082       .  S
C1027      C1036   1.365       .  A
C1027      C1028   1.380   1_565  A
C1028      C1029   1.399       .  A
C1028      O1034   1.315       .  A
C1029      C1030   1.399       .  A
C1029      H1038   1.082       .  S
C1030      C1033   1.357       .  A
O1031      C1032   1.333       .  A
C1032      C1033   1.389   1_565  A
C1033      H1039   1.083       .  S
O1034      C1035   1.329       .  A
C1035      C1036   1.395   1_545  A
C1036      H1040   1.082       .  S
C1041      C1046   1.380       .  A
C1041      C1042   1.395       .  A
C1041      O1047   1.311       .  A
C1042      C1043   1.394       .  A
C1042      H1053   1.083       .  S
C1043      C1052   1.352       .  A
C1043      C1044   1.380       .  A
C1044      C1045   1.412       .  A
C1044      O1050   1.326       .  A
C1045      C1046   1.411       .  A
C1045      H1054   1.082       .  S
C1046      C1049   1.373       .  A
O1047      C1048   1.327       .  A
C1048      C1049   1.396       .  A
C1049      H1055   1.082       .  S
O1050      C1051   1.335       .  A
C1051      C1052   1.387       .  A
C1052      H1056   1.083       .  S
C1057      C1062   1.381       .  A
C1057      C1058   1.402       .  A
C1057      O1063   1.320       .  A
C1058      C1059   1.402       .  A
C1058      H1069   1.083       .  S
C1059      C1068   1.356       .  A
C1059      C1060   1.380       .  A
C1060      C1061   1.407       .  A
C1060      O1066   1.326       .  A
C1061      C1062   1.408       .  A
C1061      H1070   1.082       .  S
C1062      C1065   1.366       .  A
O1063      C1064   1.331       .  A
C1064      C1065   1.393       .  A
C1065      H1071   1.082       .  S
O1066      C1067   1.333       .  A
C1067      C1068   1.394       .  A
C1068      H1072   1.083       .  S
C1073      C1078   1.381       .  A
C1073      C1074   1.394       .  A
C1073      O1079   1.311       .  A
C1074      C1075   1.393       .  A
C1074      H1085   1.083       .  S
C1075      C1084   1.349       .  A
C1075      C1076   1.379       .  A
C1076      C1077   1.412       .  A
C1076      O1082   1.328       .  A
C1077      C1078   1.412       .  A
C1077      H1086   1.082       .  S
C1078      C1081   1.372       .  A
O1079      C1080   1.327       .  A
C1080      C1081   1.396       .  A
C1081      H1087   1.082       .  S
O1082      C1083   1.336       .  A
C1083      C1084   1.387       .  A
C1084      H1088   1.083       .  S
C1089      C1094   1.379       .  A
C1089      C1090   1.401       .  A
C1089      O1095   1.315       .  A
C1090      C1091   1.399       .  A
C1090      H1101   1.082       .  S
C1091      C1100   1.359       .  A
C1091      C1092   1.380       .  A
C1092      C1093   1.411       .  A
C1092      O1098   1.325       .  A
C1093      C1094   1.410       .  A
C1093      H1102   1.082       .  S
C1094      C1097   1.372       .  A
O1095      C1096   1.331       .  A
C1096      C1097   1.396       .  A
C1097      H1103   1.082       .  S
O1098      C1099   1.334       .  A
C1099      C1100   1.389       .  A
C1100      H1104   1.083       .  S
C1105      C1110   1.380       .  A
C1105      C1106   1.402       .  A
C1105      O1111   1.319       .  A
C1106      C1107   1.402       .  A
C1106      H1117   1.082       .  S
C1107      C1116   1.358       .  A
C1107      C1108   1.379   1_556  A
C1108      C1109   1.407       .  A
C1108      O1114   1.324       .  A
C1109      C1110   1.407   1_554  A
C1109      H1118   1.082       .  S
C1110      C1113   1.365       .  A
O1111      C1112   1.331       .  A
C1112      C1113   1.393       .  A
C1113      H1119   1.082   1_556  S
O1114      C1115   1.334       .  A
C1115      C1116   1.395   1_554  A
C1116      H1120   1.083       .  S
C1121      C1126   1.381       .  A
C1121      C1122   1.396       .  A
C1121      O1127   1.311       .  A
C1122      C1123   1.394       .  A
C1122      H1133   1.082       .  S
C1123      C1132   1.352       .  A
C1123      C1124   1.379       .  A
C1124      C1125   1.407       .  A
C1124      O1130   1.320       .  A
C1125      C1126   1.406       .  A
C1125      H1134   1.082       .  S
C1126      C1129   1.367       .  A
O1127      C1128   1.326       .  A
C1128      C1129   1.393       .  A
C1129      H1135   1.082       .  S
O1130      C1131   1.334       .  A
C1131      C1132   1.390       .  A
C1132      H1136   1.083       .  S
C1137      C1142   1.380       .  A
C1137      C1138   1.403       .  A
C1137      O1143   1.316       .  A
C1138      C1139   1.401       .  A
C1138      H1149   1.082       .  S
C1139      C1148   1.361       .  A
C1139      C1140   1.380       .  A
C1140      C1141   1.407       .  A
C1140      O1146   1.322       .  A
C1141      C1142   1.406       .  A
C1141      H1150   1.082       .  S
C1142      C1145   1.368       .  A
O1143      C1144   1.332       .  A
C1144      C1145   1.394       .  A
C1145      H1151   1.082       .  S
O1146      C1147   1.332       .  A
C1147      C1148   1.390       .  A
C1148      H1152   1.083       .  S
C1153      C1158   1.379       .  A
C1153      C1154   1.400   1_556  A
C1153      O1159   1.314       .  A
C1154      C1155   1.399   1_554  A
C1154      H1165   1.082       .  S
C1155      C1164   1.359       .  A
C1155      C1156   1.379       .  A
C1156      C1157   1.413       .  A
C1156      O1162   1.326       .  A
C1157      C1158   1.412       .  A
C1157      H1166   1.082       .  S
C1158      C1161   1.375       .  A
O1159      C1160   1.331       .  A
C1160      C1161   1.398       .  A
C1161      H1167   1.082       .  S
O1162      C1163   1.336       .  A
C1163      C1164   1.389       .  A
C1164      H1168   1.083   1_556  S
C1169      C1174   1.379       .  A
C1169      C1170   1.399       .  A
C1169      O1175   1.315       .  A
C1170      C1171   1.399       .  A
C1170      H1181   1.082       .  S
C1171      C1180   1.356       .  A
C1171      C1172   1.378       .  A
C1172      C1173   1.417       .  A
C1172      O1178   1.332       .  A
C1173      C1174   1.417       .  A
C1173      H1182   1.082       .  S
C1174      C1177   1.379       .  A
O1175      C1176   1.330       .  A
C1176      C1177   1.400       .  A
C1177      H1183   1.082       .  S
O1178      C1179   1.339       .  A
C1179      C1180   1.390       .  A
C1180      H1184   1.083       .  S
C1185      C1190   1.379       .  A
C1185      C1186   1.404       .  A
C1185      O1191   1.316       .  A
C1186      C1187   1.401       .  A
C1186      H1197   1.082       .  S
C1187      C1196   1.363       .  A
C1187      C1188   1.379       .  A
C1188      C1189   1.411       .  A
C1188      O1194   1.324       .  A
C1189      C1190   1.410       .  A
C1189      H1198   1.082       .  S
C1190      C1193   1.374       .  A
O1191      C1192   1.333       .  A
C1192      C1193   1.396       .  A
C1193      H1199   1.082       .  S
O1194      C1195   1.334       .  A
C1195      C1196   1.390       .  A
C1196      H1200   1.083       .  S
C1201      C1206   1.378       .  A
C1201      C1202   1.398       .  A
C1201      O1207   1.314       .  A
C1202      C1203   1.398       .  A
C1202      H1213   1.082       .  S
C1203      C1212   1.356       .  A
C1203      C1204   1.380       .  A
C1204      C1205   1.410       .  A
C1204      O1210   1.325       .  A
C1205      C1206   1.410       .  A
C1205      H1214   1.082       .  S
C1206      C1209   1.369       .  A
O1207      C1208   1.330       .  A
C1208      C1209   1.400       .  A
C1209      H1215   1.082       .  S
O1210      C1211   1.335       .  A
C1211      C1212   1.389       .  A
C1212      H1216   1.083       .  S
C1217      C1222   1.379       .  A
C1217      C1218   1.408       .  A
C1217      O1223   1.324       .  A
C1218      C1219   1.409       .  A
C1218      H1229   1.082       .  S
C1219      C1228   1.368       .  A
C1219      C1220   1.380       .  A
C1220      C1221   1.405       .  A
C1220      O1226   1.321       .  A
C1221      C1222   1.404       .  A
C1221      H1230   1.082       .  S
C1222      C1225   1.361       .  A
O1223      C1224   1.334       .  A
C1224      C1225   1.395       .  A
C1225      H1231   1.083       .  S
O1226      C1227   1.332       .  A
C1227      C1228   1.395       .  A
C1228      H1232   1.082       .  S
C1233      C1238   1.381       .  A
C1233      C1234   1.396       .  A
C1233      O1239   1.313       .  A
C1234      C1235   1.396       .  A
C1234      H1245   1.082       .  S
C1235      C1244   1.353       .  A
C1235      C1236   1.379       .  A
C1236      C1237   1.413       .  A
C1236      O1242   1.329       .  A
C1237      C1238   1.414       .  A
C1237      H1246   1.082       .  S
C1238      C1241   1.373       .  A
O1239      C1240   1.327       .  A
C1240      C1241   1.397       .  A
C1241      H1247   1.082       .  S
O1242      C1243   1.337       .  A
C1243      C1244   1.388       .  A
C1244      H1248   1.083       .  S
C1249      C1254   1.380       .  A
C1249      C1250   1.399       .  A
C1249      O1255   1.313       .  A
C1250      C1251   1.398       .  A
C1250      H1261   1.083       .  S
C1251      C1260   1.357       .  A
C1251      C1252   1.381       .  A
C1252      C1253   1.408       .  A
C1252      O1258   1.322       .  A
C1253      C1254   1.407       .  A
C1253      H1262   1.082       .  S
C1254      C1257   1.368       .  A
O1255      C1256   1.330       .  A
C1256      C1257   1.395       .  A
C1257      H1263   1.082       .  S
O1258      C1259   1.333       .  A
C1259      C1260   1.388       .  A
C1260      H1264   1.083       .  S
C1265      C1270   1.380       .  A
C1265      C1266   1.406       .  A
C1265      O1271   1.321       .  A
C1266      C1267   1.406       .  A
C1266      H1277   1.082       .  S
C1267      C1276   1.364       .  A
C1267      C1268   1.381       .  A
C1268      C1269   1.400       .  A
C1268      O1274   1.316       .  A
C1269      C1270   1.399       .  A
C1269      H1278   1.082       .  S
C1270      C1273   1.356       .  A
O1271      C1272   1.332       .  A
C1272      C1273   1.391       .  A
C1273      H1279   1.083       .  S
O1274      C1275   1.329       .  A
C1275      C1276   1.393       .  A
C1276      H1280   1.082       .  S
C1281      C1286   1.378       .  A
C1281      C1282   1.408       .  A
C1281      O1287   1.322       .  A
C1282      C1283   1.407       .  A
C1282      H1293   1.082       .  S
C1283      C1292   1.368       .  A
C1283      C1284   1.381       .  A
C1284      C1285   1.398       .  A
C1284      O1290   1.314       .  A
C1285      C1286   1.397       .  A
C1285      H1294   1.082       .  S
C1286      C1289   1.355       .  A
O1287      C1288   1.335       .  A
C1288      C1289   1.393       .  A
C1289      H1295   1.082       .  S
O1290      C1291   1.328       .  A
C1291      C1292   1.394       .  A
C1292      H1296   1.082       .  S
C1297      C1302   1.380       .  A
C1297      C1298   1.411       .  A
C1297      O1303   1.325       .  A
C1298      C1299   1.410       .  A
C1298      H1309   1.082       .  S
C1299      C1308   1.372       .  A
C1299      C1300   1.380       .  A
C1300      C1301   1.399       .  A
C1300      O1306   1.315       .  A
C1301      C1302   1.398       .  A
C1301      H1310   1.083       .  S
C1302      C1305   1.355       .  A
O1303      C1304   1.334       .  A
C1304      C1305   1.390       .  A
C1305      H1311   1.083       .  S
O1306      C1307   1.329       .  A
C1307      C1308   1.395       .  A
C1308      H1312   1.082       .  S
C1313      C1318   1.381       .  A
C1313      C1314   1.396       .  A
C1313      O1319   1.313       .  A
C1314      C1315   1.396       .  A
C1314      H1325   1.082       .  S
C1315      C1324   1.355       .  A
C1315      C1316   1.381       .  A
C1316      C1317   1.408       .  A
C1316      O1322   1.322       .  A
C1317      C1318   1.407       .  A
C1317      H1326   1.082       .  S
C1318      C1321   1.366       .  A
O1319      C1320   1.327       .  A
C1320      C1321   1.394       .  A
C1321      H1327   1.082       .  S
O1322      C1323   1.333       .  A
C1323      C1324   1.385       .  A
C1324      H1328   1.083       .  S
C1329      C1334   1.380       .  A
C1329      C1330   1.400       .  A
C1329      O1335   1.313       .  A
C1330      C1331   1.399       .  A
C1330      H1341   1.082       .  S
C1331      C1340   1.360       .  A
C1331      C1332   1.380       .  A
C1332      C1333   1.404       .  A
C1332      O1338   1.318       .  A
C1333      C1334   1.402       .  A
C1333      H1342   1.082       .  S
C1334      C1337   1.363       .  A
O1335      C1336   1.329       .  A
C1336      C1337   1.392       .  A
C1337      H1343   1.082       .  S
O1338      C1339   1.331       .  A
C1339      C1340   1.390       .  A
C1340      H1344   1.082       .  S
C1345      C1350   1.378       .  A
C1345      C1346   1.409       .  A
C1345      O1351   1.325       .  A
C1346      C1347   1.409       .  A
C1346      H1357   1.082       .  S
C1347      C1356   1.368       .  A
C1347      C1348   1.380       .  A
C1348      C1349   1.401       .  A
C1348      O1354   1.318       .  A
C1349      C1350   1.401       .  A
C1349      H1358   1.082       .  S
C1350      C1353   1.356       .  A
O1351      C1352   1.336       .  A
C1352      C1353   1.395       .  A
C1353      H1359   1.082       .  S
O1354      C1355   1.330       .  A
C1355      C1356   1.395       .  A
C1356      H1360   1.082       .  S
