geometry optimzed in LAMMPS
_audit_creation_date              2020-11-30 
_audit_creation_method            'lammps2cif' 
_symmetry_space_group_name_H-M    'P1' 
_symmetry_Int_Tables_number       1 
_symmetry_cell_setting            triclinic 
loop_ 
_symmetry_equiv_pos_as_xyz 
  x,y,z 
_cell_length_a                    40.91957131 
_cell_length_b                    41.71753475159714 
_cell_length_c                    35.81968829151566 
_cell_angle_alpha                 90.34638545782549 
_cell_angle_beta                  90.8057276186396 
_cell_angle_gamma                 89.77016140283159 
loop_ 
_atom_site_label 
_atom_site_type_symbol 
_atom_site_fract_x 
_atom_site_fract_y 
_atom_site_fract_z 
_atom_site_charge 
C1          C  0.10533414  0.49760072  0.99500080    -0.01900
O2          O  0.29360986  0.48285526  0.28492691    -0.73800
O3          O  0.36120923  0.48520033  0.21100581    -0.73800
O4          O  0.35965000  0.48239947  0.28630905    -0.73900
O5          O  0.29465569  0.48371277  0.20982318    -0.73900
O6          O  0.29190220  0.03189046  0.21226728    -0.73900
O7          O  0.35980287  0.03029214  0.28880976    -0.73800
O8          O  0.35874850  0.03252137  0.21312622    -0.73800
O9          O  0.29375452  0.03167268  0.28758697    -0.73900
Ni10       Ni  0.32734769  0.48168554  0.24783202     1.25400
Ni11       Ni  0.32608477  0.03349222  0.25037905     1.25400
C12         C  0.28251108  0.00531858  0.29985310     0.88400
C13         C  0.37009392  0.00622363  0.20028090     0.88300
C14         C  0.37073956  0.00295848  0.29993040     0.88300
C15         C  0.28001340  0.00503178  0.20072846     0.88500
C16         C  0.04852792  0.99874972  0.50649593    -0.01900
C17         C  0.07654596  0.02777208  0.49883611    -0.01900
O18         O  0.10448310  0.28297897  0.21582684    -0.73800
O19         O  0.10265402  0.21390307  0.28782196    -0.73800
O20         O  0.10421239  0.21769036  0.21275719    -0.73900
O21         O  0.10453900  0.27958430  0.29136341    -0.73900
O22         O  0.05017170  0.28285106  0.28812766    -0.73900
O23         O  0.04978765  0.21663941  0.21258969    -0.73800
O24         O  0.04831324  0.21713517  0.28799557    -0.73800
O25         O  0.05008372  0.28180997  0.21271940    -0.73900
Ni26       Ni  0.10592024  0.24853614  0.25209180     1.25400
Ni27       Ni  0.04765773  0.24966380  0.25041078     1.25400
C28         C  0.07726916  0.29336955  0.20199794     0.89800
C29         C  0.07486956  0.20380724  0.29925540     0.88300
C30         C  0.07723668  0.20642235  0.20011405     0.88300
C31         C  0.07769675  0.29231589  0.30180586     0.88500
C32         C  0.07727412  0.47078847  0.49922713    -0.01900
C33         C  0.06260568  0.37399786  0.34463139    -0.01400
C34         C  0.08286164  0.37325137  0.37691552     0.07200
C35         C  0.10147071  0.34561865  0.38429524    -0.07300
C36         C  0.10006859  0.31898601  0.36034922     0.04700
C37         C  0.07897105  0.31931584  0.32878009    -0.14600
C38         C  0.06051252  0.34701581  0.32121031    -0.07900
C39         C  0.08163445  0.39909457  0.40573817     0.05600
C40         C  0.05178255  0.40558193  0.42216845    -0.09000
C41         C  0.04909282  0.42643206  0.45277855     0.00600
C42         C  0.07614074  0.44649260  0.46463484     0.00500
C43         C  0.10643776  0.43647548  0.44974112    -0.12600
C44         C  0.10953993  0.41405404  0.42059253     0.00900
C45         C  0.01952938  0.42067419  0.47273029     0.40200
C46         C  0.14148733  0.40815072  0.40529715     0.36800
C47         C  0.04415528  0.40235817  0.33466310     0.36600
C48         C  0.11964820  0.29121706  0.36963992     0.37300
N49         N  0.99317737  0.41197569  0.99376261    -0.43500
N50         N  0.16709415  0.40356305  0.39299390    -0.43900
N51         N  0.13545160  0.26905689  0.37718478    -0.41300
N52         N  0.52616838  0.42655356  0.32548654    -0.42700
H53         H  0.04499382  0.34785236  0.29642732     0.13500
H54         H  0.11649907  0.34449840  0.40944235     0.09900
H55         H  0.03069165  0.39168488  0.41301561     0.11000
H56         H  0.12842365  0.44719605  0.45987274     0.16800
C57         C  0.04583654  0.41082532  0.07745769    -0.01400
C58         C  0.07424560  0.39599927  0.09174335     0.07200
C59         C  0.10362532  0.40273333  0.07436722    -0.07300
C60         C  0.10515058  0.42329462  0.04348644     0.04700
C61         C  0.07806659  0.44401260  0.03340089    -0.14600
C62         C  0.04813589  0.43374659  0.04882495    -0.07900
C63         C  0.07398058  0.37077344  0.12153907     0.05600
C64         C  0.05384616  0.34380302  0.11688867    -0.09000
C65         C  0.05459075  0.31856132  0.14264798     0.00600
C66         C  0.07665018  0.31927915  0.17345515     0.00500
C67         C  0.09703630  0.34606312  0.17802345    -0.12600
C68         C  0.09551717  0.37183475  0.15286209     0.00900
C69         C  0.03301138  0.29173585  0.13611715     0.40200
C70         C  0.11554148  0.39959090  0.16053569     0.36800
C71         C  0.01428532  0.40515743  0.09363275     0.36600
C72         C  0.13096197  0.41353541  0.01921668     0.37300
N73         N  0.01560248  0.27031535  0.13097482    -0.43500
N74         N  0.13147975  0.42187786  0.16685745    -0.43900
N75         N  0.15115085  0.40135201  0.00171288    -0.41300
N76         N  0.98895580  0.40080098  0.10659492    -0.42700
H77         H  0.02599609  0.44553975  0.04056655     0.13500
H78         H  0.12497201  0.38859745  0.08225400     0.09900
H79         H  0.03779424  0.34214508  0.09261553     0.11000
H80         H  0.11352694  0.34730946  0.20195547     0.16800
C81         C  0.04277601  0.07607952  0.40975898    -0.01400
C82         C  0.07012495  0.09330897  0.39793699     0.07200
C83         C  0.09852776  0.09104619  0.41936280    -0.07300
C84         C  0.09973405  0.07352320  0.45260651     0.04700
C85         C  0.07445581  0.05076327  0.46221442    -0.14600
C86         C  0.04497168  0.05646487  0.44171878    -0.07900
C87         C  0.06853300  0.11940807  0.36928957     0.05600
C88         C  0.04772155  0.14576895  0.37522169    -0.09000
C89         C  0.04932594  0.17328811  0.35288026     0.00600
C90         C  0.07295923  0.17546720  0.32449292     0.00500
C91         C  0.09352392  0.14891389  0.31824931    -0.12600
C92         C  0.09111481  0.12095695  0.33985199     0.00900
C93         C  0.02707390  0.19935156  0.36065053     0.40200
C94         C  0.11135167  0.09367686  0.33068374     0.36800
C95         C  0.01174783  0.07902217  0.39039163     0.36600
C96         C  0.12374911  0.08678311  0.47817738     0.37300
N97         N  0.00905854  0.22010022  0.36686159    -0.43500
N98         N  0.12716860  0.07158055  0.32311305    -0.43900
N99         N  0.14420323  0.09860522  0.99801027    -0.41300
N100        N  0.98693078  0.08119701  0.37470358    -0.42700
H101        H  0.02208719  0.04874454  0.45280816     0.13500
H102        H  0.11863780  0.10689541  0.41272737     0.09900
H103        H  0.03076508  0.14527666  0.39821075     0.11000
H104        H  0.11098136  0.14966751  0.29577246     0.16800
C105        C  0.10821271  0.08374803  0.08271235    -0.01400
C106        C  0.08086152  0.10271190  0.09129525     0.07200
C107        C  0.05423407  0.10147750  0.06702675    -0.07300
C108        C  0.05348255  0.08091260  0.03612495     0.04700
C109        C  0.07782470  0.05587481  0.03119223    -0.14600
C110        C  0.10681171  0.06223446  0.05229173    -0.07900
C111        C  0.08075653  0.12800178  0.12102551     0.05600
C112        C  0.10503473  0.15167687  0.12103277    -0.09000
C113        C  0.10398282  0.17771957  0.14583514     0.00600
C114        C  0.07819145  0.18050504  0.17160087     0.00500
C115        C  0.05350159  0.15728002  0.17106731    -0.12600
C116        C  0.05441072  0.13140155  0.14599854     0.00900
C117        C  0.12871225  0.20212622  0.14263660     0.40200
C118        C  0.02729014  0.10938363  0.14557480     0.36800
C119        C  0.13831139  0.08631251  0.10403934     0.36600
C120        C  0.02997987  0.09189013  0.00861342     0.37300
N121        N  0.14841972  0.22176056  0.13988692    -0.43500
N122        N  0.00506588  0.09234621  0.14450979    -0.43900
N123        N  0.01045331  0.10300717  0.98880085    -0.41300
N124        N  0.16240498  0.08838871  0.12117432    -0.42700
H125        H  0.12960046  0.05174927  0.04419900     0.13500
H126        H  0.03486429  0.11912817  0.07042865     0.09900
H127        H  0.12426776  0.15054302  0.10054446     0.11000
H128        H  0.03344076  0.15923125  0.19043821     0.16800
C129        C  0.50263039  0.99507198  0.40884312    -0.01400
C130        C  0.46957018  0.99142274  0.41730485     0.07200
C131        C  0.46041902  0.48783278  0.45629485    -0.07300
C132        C  0.48494934  0.48604966  0.48423242     0.04700
C133        C  0.51917411  0.99257968  0.47552806    -0.14600
C134        C  0.52631619  0.99414434  0.43751388    -0.07900
C135        C  0.44337933  0.99421231  0.38798068     0.05600
C136        C  0.44131858  0.47614341  0.35975329    -0.09000
C137        C  0.41939273  0.48028739  0.32988007     0.00600
C138        C  0.39669845  0.00071342  0.32919500     0.00500
C139        C  0.39557599  0.02093450  0.36062792    -0.12600
C140        C  0.41848431  0.01774498  0.38998367     0.00900
C141        C  0.42242798  0.45903244  0.29809136     0.40200
C142        C  0.41625203  0.03920721  0.42161659     0.36800
C143        C  0.51249425  0.00318431  0.37150287     0.36600
C144        C  0.47363970  0.47314618  0.51910699     0.37300
N145        N  0.42491863  0.44216197  0.27251207    -0.43500
N146        N  0.41443794  0.05624669  0.44712392    -0.43900
N147        N  0.46222200  0.46676256  0.04283980    -0.41300
N148        N  0.52012944  0.00985768  0.34155432    -0.42700
H149        H  0.04984117  0.99749934  0.43173521     0.13500
H150        H  0.43507294  0.48364821  0.46332118     0.09900
H151        H  0.45901193  0.45671910  0.35881748     0.11000
H152        H  0.37641130  0.03887373  0.36258378     0.16800
C153        C  0.45613050  0.01775290  0.16731128    -0.01400
C154        C  0.45222983  0.01804697  0.12786112     0.07200
C155        C  0.42169183  0.52013395  0.11252987    -0.07300
C156        C  0.39465487  0.51758717  0.13597216     0.04700
C157        C  0.39784083  0.00804564  0.17460339    -0.14600
C158        C  0.42908504  0.01268889  0.19005655    -0.07900
C159        C  0.48087285  0.01907965  0.10211657     0.05600
C160        C  0.50735551  0.49934982  0.10693893    -0.09000
C161        C  0.53354795  0.49589162  0.08236784     0.00600
C162        C  0.53090610  0.00853448  0.04596752     0.00500
C163        C  0.50546854  0.03195816  0.04268614    -0.12600
C164        C  0.48186227  0.03811346  0.07004074     0.00900
C165        C  0.06032295  0.47972245  0.10227600     0.40200
C166        C  0.45785375  0.06292871  0.06329953     0.36800
C167        C  0.48742935  0.02276168  0.18553600     0.36600
C168        C  0.36216582  0.51873363  0.11978175     0.37300
N169        N  0.07982645  0.46680388  0.12051908    -0.43500
N170        N  0.43876069  0.08297253  0.05793650    -0.43900
N171        N  0.33612157  0.52008743  0.10685778    -0.41300
N172        N  0.51244838  0.02637503  0.20041760    -0.42700
H173        H  0.43228092  0.01276298  0.22019508     0.13500
H174        H  0.41760316  0.52044186  0.08257837     0.09900
H175        H  0.50691126  0.48476935  0.13192501     0.11000
H176        H  0.50100000  0.04296186  0.01602851     0.16800
C177        C  0.17918095  0.03105979  0.44095081    -0.01400
C178        C  0.17796057  0.01598020  0.40622481     0.07200
C179        C  0.15066275  0.50242388  0.39496687    -0.07300
C180        C  0.12418489  0.49887441  0.41893191     0.04700
C181        C  0.12619484  0.00599637  0.45881481    -0.14600
C182        C  0.15372202  0.02638004  0.46596760    -0.07900
C183        C  0.20620187  0.01427859  0.38104904     0.05600
C184        C  0.22161279  0.48653960  0.37304683    -0.09000
C185        C  0.24590352  0.48326840  0.34612410     0.00600
C186        C  0.25656277  0.00721374  0.32845951     0.00500
C187        C  0.24107794  0.03711759  0.33428384    -0.12600
C188        C  0.21629989  0.04084095  0.36038666     0.00900
C189        C  0.25925975  0.45167258  0.33962404     0.40200
C190        C  0.20127027  0.07197068  0.36505004     0.36800
C191        C  0.20745987  0.04924879  0.45283813     0.36600
C192        C  0.09718581  0.48563556  0.39826579     0.37300
N193        N  0.26969588  0.42622995  0.33443894    -0.43500
N194        N  0.18945492  0.09698635  0.36904306    -0.43900
N195        N  0.07841965  0.47396093  0.37794606    -0.41300
N196        N  0.23009462  0.06393359  0.46219557    -0.42700
H197        H  0.15758062  0.03662595  0.49327918     0.13500
H198        H  0.14942942  0.49295188  0.36659216     0.09900
H199        H  0.21346732  0.46555945  0.38800131     0.11000
H200        H  0.24805005  0.05783266  0.31813679     0.16800
C201        C  0.22496464  0.02200395  0.11696723    -0.01400
C202        C  0.20094237  0.99799089  0.12024960     0.07200
C203        C  0.20447653  0.48155508  0.15003470    -0.07300
C204        C  0.22911588  0.48543556  0.17714949     0.04700
C205        C  0.25157072  0.00386390  0.17451397    -0.14600
C206        C  0.24983031  0.02498352  0.14419575    -0.07900
C207        C  0.17553221  0.99285109  0.09074076     0.05600
C208        C  0.18686561  0.48129775  0.05435860    -0.09000
C209        C  0.16404114  0.47860238  0.02485849     0.00600
C210        C  0.12953381  0.99191743  0.02932967     0.00500
C211        C  0.12030602  0.99806934  0.06617245    -0.12600
C212        C  0.14250779  0.99979292  0.09637723     0.00900
C213        C  0.17715700  0.46406919  0.99142377     0.40200
C214        C  0.13138316  0.01166138  0.13199779     0.36800
C215        C  0.22464964  0.04361192  0.08563741     0.36600
C216        C  0.22784159  0.46577172  0.21017962     0.37300
N217        N  0.18875168  0.45250468  0.96526068    -0.43500
N218        N  0.12234658  0.02122764  0.16045368    -0.43900
N219        N  0.22678842  0.45003200  0.23663013    -0.41300
N220        N  0.22424111  0.06082177  0.06042117    -0.42700
H221        H  0.26855113  0.04305167  0.14103828     0.13500
H222        H  0.18573411  0.46361845  0.15386239     0.09900
H223        H  0.21202965  0.47386806  0.05028644     0.11000
H224        H  0.09644658  0.00707239  0.06999173     0.16800
C225        C  0.10506475  0.50004730  0.49478212    -0.01900
O226        O  0.29566572  0.48197136  0.78666152    -0.73800
O227        O  0.35969264  0.48161229  0.70905759    -0.73800
O228        O  0.36181477  0.48001506  0.78438592    -0.73900
O229        O  0.29329529  0.48224568  0.71144271    -0.73900
O230        O  0.29260078  0.03347841  0.71208960    -0.73900
O231        O  0.36140118  0.03294899  0.78728870    -0.73800
O232        O  0.35907577  0.03391364  0.71166556    -0.73800
O233        O  0.29522290  0.03391121  0.78774178    -0.73900
Ni234      Ni  0.32758229  0.47958848  0.74776081     1.25400
Ni235      Ni  0.32706697  0.03547395  0.74962739     1.25400
C236        C  0.28472108  0.00753935  0.80095036     0.88400
C237        C  0.36977350  0.00741762  0.69857829     0.88300
C238        C  0.37295111  0.00585008  0.79831700     0.88300
C239        C  0.28062031  0.00654516  0.70108646     0.88500
C240        C  0.04750603  0.99965398  0.00564596    -0.01900
C241        C  0.07582110  0.02852976  0.99878335    -0.01900
O242        O  0.09925474  0.28471432  0.71655149    -0.73800
O243        O  0.09812287  0.21542060  0.78765743    -0.73800
O244        O  0.10315221  0.21946118  0.71286186    -0.73900
O245        O  0.09514569  0.28066585  0.79203679    -0.73900
O246        O  0.04087322  0.28073001  0.78512726    -0.73900
O247        O  0.04891793  0.21546845  0.70929683    -0.73800
O248        O  0.04371892  0.21516959  0.78429434    -0.73800
O249        O  0.04524335  0.28066975  0.70961352    -0.73900
Ni250      Ni  0.10083734  0.25023155  0.75250025     1.25400
Ni251      Ni  0.04274378  0.24797237  0.74692771     1.25400
C252        C  0.07233674  0.29372486  0.70084540     0.89800
C253        C  0.07057115  0.20367340  0.79739360     0.88300
C254        C  0.07745080  0.20656093  0.69880799     0.88300
C255        C  0.06697033  0.29129858  0.80111554     0.88500
C256        C  0.07643234  0.46931469  0.99982928    -0.01900
C257        C  0.05457266  0.37316951  0.84437104    -0.01400
C258        C  0.07098596  0.36979322  0.87912172     0.07200
C259        C  0.08301808  0.33951197  0.88942810    -0.07300
C260        C  0.08012498  0.31315996  0.86517271     0.04700
C261        C  0.06530409  0.31693619  0.82967974    -0.14600
C262        C  0.05203593  0.34684529  0.81989425    -0.07900
C263        C  0.07258822  0.39641335  0.90697167     0.05600
C264        C  0.04391278  0.40546090  0.92424650    -0.09000
C265        C  0.04413179  0.42597138  0.95535537     0.00600
C266        C  0.07279371  0.44465644  0.96550116     0.00500
C267        C  0.10169438  0.43294309  0.94880719    -0.12600
C268        C  0.10204280  0.40938892  0.92044796     0.00900
C269        C  0.01599703  0.42045414  0.97787729     0.40200
C270        C  0.13289346  0.39962210  0.90491274     0.36800
C271        C  0.04069455  0.40349999  0.83295380     0.36600
C272        C  0.09125406  0.28213373  0.87784059     0.37300
N273        N  0.99567581  0.41221421  0.48653098    -0.43500
N274        N  0.15760331  0.39169647  0.89246176    -0.43900
N275        N  0.09974300  0.25717704  0.88815818    -0.41300
N276        N  0.53279990  0.42925683  0.82274725    -0.42700
H277        H  0.04058946  0.34988916  0.79263848     0.13500
H278        H  0.09420376  0.33636519  0.91680157     0.09900
H279        H  0.02154383  0.39314187  0.91602851     0.11000
H280        H  0.12473310  0.44275644  0.95728817     0.16800
C281        C  0.04567416  0.41047927  0.57421390    -0.01400
C282        C  0.07378242  0.39584068  0.58951112     0.07200
C283        C  0.10364413  0.40339015  0.57361963    -0.07300
C284        C  0.10607116  0.42503599  0.54375112     0.04700
C285        C  0.07878613  0.44511677  0.53248925    -0.14600
C286        C  0.04859071  0.43378104  0.54611293    -0.07900
C287        C  0.07271855  0.37050353  0.61927801     0.05600
C288        C  0.05213310  0.34385901  0.61428500    -0.09000
C289        C  0.05147144  0.31891307  0.64044650     0.00600
C290        C  0.07232928  0.31969741  0.67230215     0.00500
C291        C  0.09326854  0.34604945  0.67714144    -0.12600
C292        C  0.09344683  0.37135769  0.65134126     0.00900
C293        C  0.03010425  0.29210589  0.63293743     0.40200
C294        C  0.11483242  0.39814805  0.65888651     0.36800
C295        C  0.01365410  0.40425200  0.58888248     0.36600
C296        C  0.13426460  0.41788694  0.52188036     0.37300
N297        N  0.01296819  0.27063999  0.62686164    -0.43500
N298        N  0.13212226  0.41948146  0.66502981    -0.43900
N299        N  0.15665023  0.40767651  0.50629645    -0.41300
N300        N  0.98797701  0.39940189  0.60068869    -0.42700
H301        H  0.02660212  0.44506858  0.53682809     0.13500
H302        H  0.12498230  0.38956430  0.58224227     0.09900
H303        H  0.03690189  0.34213896  0.58934720     0.11000
H304        H  0.10919632  0.34717199  0.70157298     0.16800
C305        C  0.04300487  0.07744012  0.91024340    -0.01400
C306        C  0.07023865  0.09521368  0.89921841     0.07200
C307        C  0.09843878  0.09306631  0.92110374    -0.07300
C308        C  0.09976126  0.07457520  0.95363818     0.04700
C309        C  0.07438153  0.05170216  0.96248775    -0.14600
C310        C  0.04508193  0.05759006  0.94185628    -0.07900
C311        C  0.06856628  0.12111701  0.87036604     0.05600
C312        C  0.04506055  0.14559684  0.87375719    -0.09000
C313        C  0.04495529  0.17228127  0.85008597     0.00600
C314        C  0.06966288  0.17577818  0.82319912     0.00500
C315        C  0.09325021  0.15135085  0.81980032    -0.12600
C316        C  0.09255516  0.12402501  0.84255860     0.00900
C317        C  0.01971034  0.19616421  0.85489144     0.40200
C318        C  0.11623564  0.09885597  0.83634661     0.36800
C319        C  0.01201202  0.08024143  0.89073867     0.36600
C320        C  0.12414282  0.08675429  0.97948233     0.37300
N321        N  0.99929127  0.21513935  0.85862739    -0.43500
N322        N  0.13494951  0.07846401  0.83133148    -0.43900
N323        N  0.14349538  0.09944264  0.49640236    -0.41300
N324        N  0.98716775  0.08244230  0.87511395    -0.42700
H325        H  0.02211245  0.04987012  0.95269801     0.13500
H326        H  0.11838856  0.10932529  0.91521112     0.09900
H327        H  0.02710081  0.14431873  0.89566144     0.11000
H328        H  0.11187062  0.15324401  0.79868356     0.16800
C329        C  0.11154563  0.08367505  0.58098199    -0.01400
C330        C  0.08469207  0.10305459  0.59003699     0.07200
C331        C  0.05750516  0.10187146  0.56650586    -0.07300
C332        C  0.05556050  0.08066472  0.53622007     0.04700
C333        C  0.07944922  0.05527627  0.53103103    -0.14600
C334        C  0.10900500  0.06160696  0.55119189    -0.07900
C335        C  0.08492805  0.12776848  0.62045536     0.05600
C336        C  0.10877622  0.15193145  0.62092971    -0.09000
C337        C  0.10694567  0.17785622  0.64602619     0.00600
C338        C  0.08070508  0.18003334  0.67127064     0.00500
C339        C  0.05706249  0.15580051  0.67089994    -0.12600
C340        C  0.05885379  0.13004738  0.64585714     0.00900
C341        C  0.13119805  0.20278184  0.64363161     0.40200
C342        C  0.03256688  0.10712538  0.64547299     0.36800
C343        C  0.14233752  0.08644691  0.60092257     0.36600
C344        C  0.03126346  0.09115071  0.50934871     0.37300
N345        N  0.15055761  0.22282137  0.64158335    -0.43500
N346        N  0.01101998  0.08930805  0.64410678    -0.43900
N347        N  0.01110937  0.10175982  0.48997907    -0.41300
N348        N  0.16709845  0.08864075  0.61672673    -0.42700
H349        H  0.13149244  0.05089709  0.54264410     0.13500
H350        H  0.03838769  0.11972827  0.57026812     0.09900
H351        H  0.12809696  0.15135903  0.60053119     0.11000
H352        H  0.03688225  0.15702814  0.69018527     0.16800
C353        C  0.50455309  0.99750882  0.90854146    -0.01400
C354        C  0.47126223  0.99540570  0.91650242     0.07200
C355        C  0.46356837  0.48928875  0.95188642    -0.07300
C356        C  0.48686920  0.48796284  0.98112931     0.04700
C357        C  0.52011674  0.99498608  0.97564043    -0.14600
C358        C  0.52781529  0.99595955  0.93761677    -0.07900
C359        C  0.44562761  0.99841118  0.88655893     0.05600
C360        C  0.44601646  0.47557134  0.85619760    -0.09000
C361        C  0.42285703  0.47807888  0.82717792     0.00600
C362        C  0.39928199  0.00425948  0.82727803     0.00500
C363        C  0.39879884  0.02563049  0.85773086    -0.12600
C364        C  0.42156712  0.02280457  0.88728946     0.00900
C365        C  0.42365027  0.45420528  0.79780487     0.40200
C366        C  0.42001550  0.04543287  0.91786767     0.36800
C367        C  0.51519752  0.00449427  0.87117459     0.36600
C368        C  0.47379274  0.47657665  0.01592486     0.37300
N369        N  0.42431303  0.43500774  0.77436039    -0.43500
N370        N  0.41878753  0.06344517  0.94251003    -0.43900
N371        N  0.46361348  0.46169641  0.54595904    -0.41300
N372        N  0.52336085  0.01029792  0.84116280    -0.42700
H373        H  0.05037553  0.99876637  0.93087662     0.13500
H374        H  0.43792270  0.48538647  0.95766033     0.09900
H375        H  0.46336825  0.45583205  0.85622333     0.11000
H376        H  0.38013818  0.04412973  0.85887324     0.16800
C377        C  0.45491331  0.02074138  0.66515983    -0.01400
C378        C  0.45134207  0.01793004  0.62586218     0.07200
C379        C  0.42251372  0.50638142  0.61143251    -0.07300
C380        C  0.39597415  0.50158038  0.63505686     0.04700
C381        C  0.39727289  0.00875473  0.67277873    -0.14600
C382        C  0.42788658  0.01658920  0.68796206    -0.07900
C383        C  0.47995553  0.01899234  0.60046177     0.05600
C384        C  0.50718890  0.49842428  0.60766225    -0.09000
C385        C  0.53302467  0.49466459  0.58271690     0.00600
C386        C  0.52997808  0.00781296  0.54497693     0.00500
C387        C  0.50408771  0.03062538  0.54068270    -0.12600
C388        C  0.48032366  0.03698342  0.56764498     0.00900
C389        C  0.05914414  0.47907576  0.60106119     0.40200
C390        C  0.45553352  0.06083125  0.55983353     0.36800
C391        C  0.48593210  0.02723303  0.68331136     0.36600
C392        C  0.36608149  0.48823432  0.61989129     0.37300
N393        N  0.07830456  0.46582004  0.61943344    -0.43500
N394        N  0.43588434  0.08016631  0.55359030    -0.43900
N395        N  0.34221519  0.47719665  0.60790512    -0.41300
N396        N  0.51065783  0.03179406  0.69847383    -0.42700
H397        H  0.43069566  0.01933043  0.71799893     0.13500
H398        H  0.42006242  0.50037702  0.58204743     0.09900
H399        H  0.50721898  0.48501651  0.63361443     0.11000
H400        H  0.49950593  0.04092922  0.51364334     0.16800
C401        C  0.18097501  0.03049518  0.94378632    -0.01400
C402        C  0.18016018  0.01626641  0.90849699     0.07200
C403        C  0.15278588  0.49880642  0.89587439    -0.07300
C404        C  0.12583501  0.49541388  0.91944891     0.04700
C405        C  0.12653628  0.00694743  0.95947106    -0.14600
C406        C  0.15449138  0.02654808  0.96774360    -0.07900
C407        C  0.20886141  0.01493397  0.88354017     0.05600
C408        C  0.22626536  0.48542600  0.87641782    -0.09000
C409        C  0.25175641  0.48316288  0.85082315     0.00600
C410        C  0.25945105  0.00905144  0.83058097     0.00500
C411        C  0.24601044  0.03924591  0.83982040    -0.12600
C412        C  0.22106956  0.04236110  0.86594276     0.00900
C413        C  0.26977401  0.45338520  0.84882486     0.40200
C414        C  0.20780955  0.07385279  0.87333684     0.36800
C415        C  0.20992857  0.04664077  0.95753663     0.36600
C416        C  0.09866250  0.48288762  0.89844815     0.37300
N417        N  0.28446171  0.42964747  0.84750026    -0.43500
N418        N  0.19743997  0.09917833  0.87937599    -0.43900
N419        N  0.07953492  0.47174921  0.87816290    -0.41300
N420        N  0.23321686  0.05950593  0.96841007    -0.42700
H421        H  0.15783972  0.03648581  0.99533825     0.13500
H422        H  0.15187773  0.48924331  0.86754978     0.09900
H423        H  0.21958968  0.46454414  0.89247469     0.11000
H424        H  0.25453070  0.06069334  0.82612689     0.16800
C425        C  0.22922281  0.01936032  0.61372122    -0.01400
C426        C  0.20297770  0.99801968  0.61932873     0.07200
C427        C  0.20243792  0.48366944  0.65216694    -0.07300
C428        C  0.22722128  0.48692063  0.67928835     0.04700
C429        C  0.25269575  0.00530527  0.67440338    -0.14600
C430        C  0.25372673  0.02291691  0.64123474    -0.07900
C431        C  0.17731770  0.99266603  0.58999609     0.05600
C432        C  0.18697140  0.48518592  0.55468877    -0.09000
C433        C  0.16475548  0.48318385  0.52457940     0.00600
C434        C  0.13085476  0.99171711  0.52887243     0.00500
C435        C  0.12184387  0.99756932  0.56588276    -0.12600
C436        C  0.14425296  0.99946461  0.59587532     0.00900
C437        C  0.17911674  0.47006687  0.49104613     0.40200
C438        C  0.13326344  0.01162272  0.63143040     0.36800
C439        C  0.23141504  0.03792971  0.57996839     0.36600
C440        C  0.22476721  0.46857784  0.71322084     0.37300
N441        N  0.19177596  0.45942713  0.46501914    -0.43500
N442        N  0.12441424  0.02136467  0.65988642    -0.43900
N443        N  0.22286456  0.45407126  0.74053889    -0.41300
N444        N  0.23302997  0.05267212  0.55280266    -0.42700
H445        H  0.27418065  0.03872731  0.63633233     0.13500
H446        H  0.18285031  0.46672371  0.65646188     0.09900
H447        H  0.21243232  0.47875382  0.55068176     0.11000
H448        H  0.09794635  0.00643417  0.56994294     0.16800
C449        C  0.10401985  0.99885327  0.99564818    -0.01900
O450        O  0.29309121  0.97834693  0.28722876    -0.73800
O451        O  0.35891251  0.97903653  0.21083736    -0.73800
O452        O  0.35935051  0.97690063  0.28624606    -0.73900
O453        O  0.29210844  0.97847035  0.21197696    -0.73900
O454        O  0.29335322  0.53713240  0.21093042    -0.73900
O455        O  0.35986205  0.53573495  0.28943572    -0.73800
O456        O  0.36017188  0.53867769  0.21352952    -0.73800
O457        O  0.29365717  0.53616300  0.28636393    -0.73900
Ni458      Ni  0.32587946  0.97628644  0.24890324     1.25400
Ni459      Ni  0.32678096  0.53886911  0.25003983     1.25400
C460        C  0.28246150  0.50948299  0.29780056     0.88400
C461        C  0.37200332  0.51257877  0.20067494     0.88300
C462        C  0.37067309  0.50834596  0.30062220     0.88300
C463        C  0.28227323  0.51015611  0.19867228     0.88500
C464        C  0.04869650  0.49936570  0.50488753    -0.01900
C465        C  0.07603063  0.52895518  0.49738483    -0.01900
O466        O  0.10068310  0.78401877  0.21490368    -0.73800
O467        O  0.09947820  0.71455118  0.28619960    -0.73800
O468        O  0.10219797  0.71883286  0.21123801    -0.73900
O469        O  0.09973183  0.77999598  0.29048677    -0.73900
O470        O  0.04534618  0.78229496  0.28615785    -0.73900
O471        O  0.04783441  0.71635540  0.20997968    -0.73800
O472        O  0.04505515  0.71664397  0.28541675    -0.73800
O473        O  0.04637371  0.78155590  0.21054969    -0.73900
Ni474      Ni  0.10245311  0.74941570  0.25086320     1.25400
Ni475      Ni  0.04419705  0.74923387  0.24800421     1.25400
C476        C  0.07345180  0.79376315  0.20049529     0.89800
C477        C  0.07176038  0.70395731  0.29718107     0.88300
C478        C  0.07576211  0.70687503  0.19800752     0.88300
C479        C  0.07247466  0.79190848  0.30078196     0.88500
C480        C  0.07637855  0.96950685  0.50046086    -0.01900
C481        C  0.06054274  0.87337041  0.34555987    -0.01400
C482        C  0.07869154  0.87039521  0.37924013     0.07200
C483        C  0.09389886  0.84099357  0.38745186    -0.07300
C484        C  0.09129449  0.81487373  0.36274326     0.04700
C485        C  0.07307391  0.81786182  0.32914600    -0.14600
C486        C  0.05779343  0.84718909  0.32095272    -0.07900
C487        C  0.07841592  0.89614106  0.40827832     0.05600
C488        C  0.04887007  0.90357178  0.42484801    -0.09000
C489        C  0.04685197  0.92511818  0.45494385     0.00600
C490        C  0.07440232  0.94486515  0.46608741     0.00500
C491        C  0.10435435  0.93403324  0.45089887    -0.12600
C492        C  0.10673277  0.91084648  0.42237568     0.00900
C493        C  0.01723992  0.92045398  0.47517421     0.40200
C494        C  0.13834872  0.90401710  0.40672731     0.36800
C495        C  0.04487464  0.90320696  0.33543938     0.36600
C496        C  0.10624727  0.78475675  0.37319102     0.37300
N497        N  0.99222792  0.91325043  0.98868119    -0.43500
N498        N  0.16372524  0.89884789  0.39411241    -0.43900
N499        N  0.11798453  0.76049996  0.38152029    -0.41300
N500        N  0.53204355  0.92638230  0.32731986    -0.42700
H501        H  0.04431351  0.84987296  0.29485811     0.13500
H502        H  0.10706851  0.83818432  0.41372671     0.09900
H503        H  0.02739635  0.89008371  0.41603861     0.11000
H504        H  0.12665452  0.94469555  0.46026485     0.16800
C505        C  0.04306021  0.91064818  0.07487176    -0.01400
C506        C  0.07120928  0.89608515  0.09017599     0.07200
C507        C  0.10102305  0.90316153  0.07397548    -0.07300
C508        C  0.10331337  0.92411119  0.04356431     0.04700
C509        C  0.07632164  0.94466035  0.03274164    -0.14600
C510        C  0.04603448  0.93393595  0.04677655    -0.07900
C511        C  0.07044379  0.87102607  0.12007281     0.05600
C512        C  0.05074097  0.84381240  0.11492244    -0.09000
C513        C  0.05140015  0.81855533  0.14064656     0.00600
C514        C  0.07274590  0.81968758  0.17207479     0.00500
C515        C  0.09260832  0.84674180  0.17720530    -0.12600
C516        C  0.09136779  0.87238101  0.15192920     0.00900
C517        C  0.03082589  0.79113888  0.13320235     0.40200
C518        C  0.11140644  0.90008203  0.15981622     0.36800
C519        C  0.01099978  0.90426244  0.08933370     0.36600
C520        C  0.13031073  0.91528640  0.02054807     0.37300
N521        N  0.01430414  0.76920137  0.12719723    -0.43500
N522        N  0.12751785  0.92220921  0.16632169    -0.43900
N523        N  0.15155187  0.90384530  0.00403590    -0.41300
N524        N  0.98521668  0.89929286  0.10077762    -0.42700
H525        H  0.02409908  0.94563880  0.03784951     0.13500
H526        H  0.12228163  0.88919056  0.08255640     0.09900
H527        H  0.03530346  0.84186766  0.09016695     0.11000
H528        H  0.10863972  0.84819136  0.20152684     0.16800
C529        C  0.04103906  0.57661906  0.40853531    -0.01400
C530        C  0.06806130  0.59423036  0.39657441     0.07200
C531        C  0.09662699  0.59237463  0.41780273    -0.07300
C532        C  0.09837559  0.57469399  0.45089234     0.04700
C533        C  0.07351026  0.55161253  0.46060096    -0.14600
C534        C  0.04380512  0.55691469  0.44034147    -0.07900
C535        C  0.06606672  0.62007623  0.36771706     0.05600
C536        C  0.04512407  0.64636372  0.37357697    -0.09000
C537        C  0.04676707  0.67388823  0.35126248     0.00600
C538        C  0.07011540  0.67583127  0.32258390     0.00500
C539        C  0.09079879  0.64939525  0.31642246    -0.12600
C540        C  0.08873603  0.62165702  0.33837139     0.00900
C541        C  0.02539735  0.70049753  0.35978511     0.40200
C542        C  0.10990180  0.59483629  0.33014088     0.36800
C543        C  0.00973506  0.57936007  0.38967434     0.36600
C544        C  0.12231855  0.58808709  0.47642308     0.37300
N545        N  0.00832694  0.72184393  0.36669883    -0.43500
N546        N  0.12662100  0.57314682  0.32357330    -0.43900
N547        N  0.14628205  0.59740322  0.99409152    -0.41300
N548        N  0.98465753  0.58135286  0.37450350    -0.42700
H549        H  0.02111251  0.54884639  0.45159544     0.13500
H550        H  0.11643750  0.60855684  0.41109996     0.09900
H551        H  0.02831574  0.64595168  0.39671074     0.11000
H552        H  0.10826314  0.65017248  0.29395237     0.16800
C553        C  0.11083010  0.58487180  0.07972412    -0.01400
C554        C  0.08334185  0.60348722  0.08876972     0.07200
C555        C  0.05635593  0.60159942  0.06510997    -0.07300
C556        C  0.05524785  0.58054980  0.03467588     0.04700
C557        C  0.07969213  0.55557502  0.02972921    -0.14600
C558        C  0.10900980  0.56260739  0.04998946    -0.07900
C559        C  0.08277510  0.62852824  0.11886227     0.05600
C560        C  0.10633801  0.65290062  0.11928085    -0.09000
C561        C  0.10431363  0.67878778  0.14431080     0.00600
C562        C  0.07797996  0.68095344  0.16949720     0.00500
C563        C  0.05417425  0.65687626  0.16871611    -0.12600
C564        C  0.05634344  0.63091251  0.14387829     0.00900
C565        C  0.12887053  0.70347179  0.14226014     0.40200
C566        C  0.03054547  0.60743114  0.14399572     0.36800
C567        C  0.14143481  0.58848221  0.09982804     0.36600
C568        C  0.03091351  0.59086364  0.00776983     0.37300
N569        N  0.14853640  0.72325634  0.14061057    -0.43500
N570        N  0.00949559  0.58901806  0.14343987    -0.43900
N571        N  0.01057058  0.60143793  0.98862194    -0.41300
N572        N  0.16600503  0.59141697  0.11585386    -0.42700
H573        H  0.13166737  0.55190075  0.04184259     0.13500
H574        H  0.03675758  0.61897437  0.06876675     0.09900
H575        H  0.12580378  0.65238254  0.09906204     0.11000
H576        H  0.03392803  0.65810680  0.18790519     0.16800
C577        C  0.50102246  0.49582028  0.40974267    -0.01400
C578        C  0.46802680  0.49389893  0.41919742     0.07200
C579        C  0.46147233  0.98497623  0.45416757    -0.07300
C580        C  0.48531011  0.98454918  0.48290476     0.04700
C581        C  0.51883392  0.49333349  0.47599653    -0.14600
C582        C  0.52516440  0.49428230  0.43779639    -0.07900
C583        C  0.44162775  0.49731647  0.39026730     0.05600
C584        C  0.44436316  0.97393612  0.35660700    -0.09000
C585        C  0.42154425  0.97706434  0.32733741     0.00600
C586        C  0.39617990  0.50558781  0.33048753     0.00500
C587        C  0.39624848  0.52672312  0.36122210    -0.12600
C588        C  0.41872494  0.52276106  0.39099014     0.00900
C589        C  0.42499180  0.95645223  0.29504557     0.40200
C590        C  0.41848464  0.54550556  0.42152286     0.36800
C591        C  0.51037377  0.50273663  0.37189578     0.36600
C592        C  0.47311833  0.97284861  0.51799178     0.37300
N593        N  0.42775975  0.94005009  0.26909639    -0.43500
N594        N  0.41848899  0.56361328  0.44612874    -0.43900
N595        N  0.46161458  0.96574629  0.04369890    -0.41300
N596        N  0.51737161  0.50850938  0.34147541    -0.42700
H597        H  0.05021735  0.49799452  0.43027682     0.13500
H598        H  0.43615455  0.97988277  0.46049174     0.09900
H599        H  0.46335266  0.95579211  0.35479098     0.11000
H600        H  0.37850921  0.54607548  0.36222497     0.16800
C601        C  0.45818847  0.52032641  0.16662741    -0.01400
C602        C  0.45381170  0.52159687  0.12721490     0.07200
C603        C  0.42059645  0.01366189  0.11259929    -0.07300
C604        C  0.39348811  0.00920276  0.13560608     0.04700
C605        C  0.39949238  0.51460710  0.17474734    -0.14600
C606        C  0.43117581  0.51643451  0.18973133    -0.07900
C607        C  0.48207910  0.52108763  0.10084485     0.05600
C608        C  0.50670358  0.99804909  0.10824655    -0.09000
C609        C  0.53284411  0.99497523  0.08351346     0.00600
C610        C  0.53160746  0.50879925  0.04458311     0.00500
C611        C  0.50638156  0.53236007  0.04082989    -0.12600
C612        C  0.48334306  0.53966853  0.06838644     0.00900
C613        C  0.05740220  0.97886853  0.10188012     0.40200
C614        C  0.46045928  0.56548064  0.06161314     0.36800
C615        C  0.48988755  0.52334343  0.18454595     0.36600
C616        C  0.36136587  0.00645866  0.11874804     0.37300
N617        N  0.07646629  0.96553803  0.12030095    -0.43500
N618        N  0.44230952  0.58633351  0.05618121    -0.43900
N619        N  0.33555453  0.00447993  0.10532921    -0.41300
N620        N  0.51520051  0.52552194  0.19915745    -0.42700
H621        H  0.43476754  0.51527358  0.21977866     0.13500
H622        H  0.41705850  0.01314083  0.08255590     0.09900
H623        H  0.50645472  0.98342553  0.13323357     0.11000
H624        H  0.50195998  0.54301554  0.01396386     0.16800
C625        C  0.18026650  0.53265340  0.44086033    -0.01400
C626        C  0.17908246  0.51765431  0.40604327     0.07200
C627        C  0.14966369  0.00030768  0.39543389    -0.07300
C628        C  0.12337287  0.99652584  0.41966998     0.04700
C629        C  0.12676847  0.50824059  0.45813944    -0.14600
C630        C  0.15431508  0.52860669  0.46548622    -0.07900
C631        C  0.20705033  0.51639588  0.38040424     0.05600
C632        C  0.22158887  0.98450083  0.37578894    -0.09000
C633        C  0.24684621  0.98078310  0.35014593     0.00600
C634        C  0.25625101  0.51050361  0.32616706     0.00500
C635        C  0.24125252  0.54034780  0.33369703    -0.12600
C636        C  0.21677842  0.54339888  0.36027584     0.00900
C637        C  0.26263896  0.94986266  0.34766283     0.40200
C638        C  0.20112068  0.57417141  0.36540053     0.36800
C639        C  0.20912834  0.54961065  0.45343265     0.36600
C640        C  0.09625373  0.98298471  0.39946868     0.37300
N641        N  0.27527375  0.92502910  0.34613013    -0.43500
N642        N  0.18853258  0.59880257  0.36953771    -0.43900
N643        N  0.07715409  0.97106983  0.37976840    -0.41300
N644        N  0.23236435  0.56305964  0.46341721    -0.42700
H645        H  0.15788282  0.53903576  0.49279710     0.13500
H646        H  0.14839459  0.99063051  0.36716373     0.09900
H647        H  0.21371013  0.96401311  0.39179096     0.11000
H648        H  0.24823057  0.56151970  0.31836996     0.16800
C649        C  0.22822983  0.52383816  0.11312819    -0.01400
C650        C  0.20399683  0.50015816  0.11767444     0.07200
C651        C  0.20180433  0.97784194  0.15132008    -0.07300
C652        C  0.22677068  0.98047624  0.17829204     0.04700
C653        C  0.25409111  0.50841735  0.17219002    -0.14600
C654        C  0.25289306  0.52797517  0.14046206    -0.07900
C655        C  0.17818785  0.49419226  0.08876945     0.05600
C656        C  0.18491450  0.98137897  0.05594854    -0.09000
C657        C  0.16273589  0.97983403  0.02576185     0.00600
C658        C  0.13104763  0.49112780  0.02859749     0.00500
C659        C  0.12249562  0.49861584  0.06530492    -0.12600
C660        C  0.14524614  0.50129551  0.09487882     0.00900
C661        C  0.17664972  0.96628654  0.99220026     0.40200
C662        C  0.13471248  0.51416404  0.13028647     0.36800
C663        C  0.22815878  0.54414069  0.08064369     0.36600
C664        C  0.22603582  0.95901220  0.20978736     0.37300
N665        N  0.18889827  0.95536825  0.96606321    -0.43500
N666        N  0.12622966  0.52445997  0.15863310    -0.43900
N667        N  0.22534548  0.94174641  0.23493464    -0.41300
N668        N  0.22798298  0.56040571  0.05459019    -0.42700
H669        H  0.27177270  0.54573652  0.13643266     0.13500
H670        H  0.18326854  0.95954879  0.15407519     0.09900
H671        H  0.21018799  0.97417484  0.05216392     0.11000
H672        H  0.09875019  0.50785959  0.06931594     0.16800
C673        C  0.10473101  0.99815579  0.49564423    -0.01900
O674        O  0.29542165  0.98061999  0.78839469    -0.73800
O675        O  0.35869798  0.98040366  0.70964668    -0.73800
O676        O  0.36161899  0.97955294  0.78510612    -0.73900
O677        O  0.29227798  0.98002904  0.71309863    -0.73900
O678        O  0.29417930  0.53568010  0.71130349    -0.73900
O679        O  0.36243342  0.53335463  0.78728236    -0.73800
O680        O  0.36090242  0.53508894  0.71190537    -0.73800
O681        O  0.29614428  0.53530551  0.78698925    -0.73900
Ni682      Ni  0.32700342  0.97825634  0.74896403     1.25400
Ni683      Ni  0.32842806  0.53679056  0.74931235     1.25400
C684        C  0.28525670  0.50885825  0.79957043     0.88400
C685        C  0.37140799  0.50854901  0.69870847     0.88300
C686        C  0.37359013  0.50598615  0.79795971     0.88300
C687        C  0.28185906  0.50900069  0.69987038     0.88500
C688        C  0.04902803  0.49897050  0.00568661    -0.01900
C689        C  0.07738826  0.52762155  0.99795283    -0.01900
O690        O  0.10089155  0.78356293  0.71646528    -0.73800
O691        O  0.09990839  0.71436212  0.78757707    -0.73800
O692        O  0.10275003  0.71838192  0.71271442    -0.73900
O693        O  0.09909851  0.77981507  0.79191402    -0.73900
O694        O  0.04470239  0.78127775  0.78719850    -0.73900
O695        O  0.04838291  0.71589885  0.71096567    -0.73800
O696        O  0.04546655  0.71557758  0.78614036    -0.73800
O697        O  0.04659594  0.78100790  0.71172909    -0.73900
Ni698      Ni  0.10259238  0.74911649  0.75235203     1.25400
Ni699      Ni  0.04433661  0.74844156  0.74898781     1.25400
C700        C  0.07375173  0.79326804  0.70191242     0.89800
C701        C  0.07231194  0.70324794  0.79809714     0.88300
C702        C  0.07635398  0.70639899  0.69929891     0.88300
C703        C  0.07156394  0.79140583  0.80188610     0.88500
C704        C  0.07526914  0.97035251  0.99962509    -0.01900
C705        C  0.05696264  0.87313507  0.84492853    -0.01400
C706        C  0.07597578  0.87151222  0.87815303     0.07200
C707        C  0.09213553  0.84272363  0.88693291    -0.07300
C708        C  0.09014182  0.81607591  0.86302088     0.04700
C709        C  0.07140261  0.81778084  0.82970184    -0.14600
C710        C  0.05470565  0.84632717  0.82116988    -0.07900
C711        C  0.07599569  0.89798625  0.90631291     0.05600
C712        C  0.04655305  0.90603081  0.92269966    -0.09000
C713        C  0.04507700  0.92685208  0.95347493     0.00600
C714        C  0.07295212  0.94610385  0.96487925     0.00500
C715        C  0.10265085  0.93516282  0.94934342    -0.12600
C716        C  0.10460409  0.91196768  0.92078803     0.00900
C717        C  0.01585925  0.92149563  0.97421961     0.40200
C718        C  0.13626241  0.90373338  0.90616664     0.36800
C719        C  0.04010191  0.90223887  0.83427840     0.36600
C720        C  0.10647812  0.78680271  0.87399430     0.37300
N721        N  0.99322257  0.91277978  0.48922684    -0.43500
N722        N  0.16168994  0.89714354  0.89457834    -0.43900
N723        N  0.11941889  0.76327730  0.88285274    -0.41300
N724        N  0.52998648  0.92781751  0.82551998    -0.42700
H725        H  0.04064571  0.84798675  0.79534700     0.13500
H726        H  0.10578043  0.84083593  0.91301153     0.09900
H727        H  0.02482491  0.89298775  0.91377099     0.11000
H728        H  0.12513212  0.94534873  0.95892864     0.16800
C729        C  0.04499803  0.91010910  0.57645884    -0.01400
C730        C  0.07322959  0.89542165  0.59139345     0.07200
C731        C  0.10290513  0.90250391  0.57491776    -0.07300
C732        C  0.10508701  0.92374157  0.54474921     0.04700
C733        C  0.07788116  0.94406852  0.53386845    -0.14600
C734        C  0.04771951  0.93323276  0.54813336    -0.07900
C735        C  0.07251442  0.87021228  0.62115413     0.05600
C736        C  0.05217167  0.84341418  0.61618018    -0.09000
C737        C  0.05231378  0.81821384  0.64195429     0.00600
C738        C  0.07344586  0.81915951  0.67352113     0.00500
C739        C  0.09416039  0.84562901  0.67834568    -0.12600
C740        C  0.09382032  0.87101456  0.65273164     0.00900
C741        C  0.03179623  0.79082369  0.63417419     0.40200
C742        C  0.11559139  0.89759932  0.65973228     0.36800
C743        C  0.01313011  0.90402048  0.59162783     0.36600
C744        C  0.13280276  0.91589789  0.52238732     0.37300
N745        N  0.01548142  0.76880096  0.62784482    -0.43500
N746        N  0.13332985  0.91865930  0.66540986    -0.43900
N747        N  0.15479971  0.90521988  0.50649806    -0.41300
N748        N  0.98757863  0.89924179  0.60381528    -0.42700
H749        H  0.02569700  0.94471539  0.53915050     0.13500
H750        H  0.12421048  0.88850177  0.58327212     0.09900
H751        H  0.03670558  0.84168200  0.59142924     0.11000
H752        H  0.11039629  0.84669986  0.70252092     0.16800
C753        C  0.04358293  0.57661089  0.90981274    -0.01400
C754        C  0.07103818  0.59335156  0.89748117     0.07200
C755        C  0.09985273  0.59026524  0.91808773    -0.07300
C756        C  0.10132737  0.57247906  0.95113281     0.04700
C757        C  0.07568121  0.55031346  0.96119070    -0.14600
C758        C  0.04602788  0.55671304  0.94136759    -0.07900
C759        C  0.06924605  0.61956054  0.86904651     0.05600
C760        C  0.04690855  0.64486389  0.87403764    -0.09000
C761        C  0.04711040  0.67191003  0.85097767     0.00600
C762        C  0.07120856  0.67502969  0.82333046     0.00500
C763        C  0.09357017  0.64974024  0.81823398    -0.12600
C764        C  0.09230600  0.62195614  0.84017485     0.00900
C765        C  0.02271030  0.69642269  0.85699889     0.40200
C766        C  0.11416857  0.59570325  0.83182201     0.36800
C767        C  0.01206407  0.58068514  0.89179309     0.36600
C768        C  0.12596543  0.58518570  0.97627927     0.37300
N769        N  0.00291825  0.71588797  0.86158854    -0.43500
N770        N  0.13130242  0.57440562  0.82492998    -0.43900
N771        N  0.14193018  0.60087321  0.49471059    -0.41300
N772        N  0.98684584  0.58413556  0.87732755    -0.42700
H773        H  0.02317022  0.54920309  0.95270900     0.13500
H774        H  0.12014887  0.60578051  0.91116624     0.09900
H775        H  0.02962855  0.64390538  0.89666843     0.11000
H776        H  0.11150793  0.65127642  0.79631621     0.16800
C777        C  0.10840271  0.58459157  0.58067827    -0.01400
C778        C  0.08133260  0.60399213  0.58885766     0.07200
C779        C  0.05481160  0.60300538  0.56436455    -0.07300
C780        C  0.05354913  0.58174377  0.53407896     0.04700
C781        C  0.07791901  0.55666292  0.52934810    -0.14600
C782        C  0.10698682  0.56326851  0.55014197    -0.07900
C783        C  0.08118891  0.62882340  0.61910014     0.05600
C784        C  0.10590212  0.65207953  0.62043669    -0.09000
C785        C  0.10475310  0.67766693  0.64593303     0.00600
C786        C  0.07832661  0.68045609  0.67086220     0.00500
C787        C  0.05348302  0.65739887  0.66926894    -0.12600
C788        C  0.05457738  0.63196322  0.64367536     0.00900
C789        C  0.13014105  0.70155407  0.64439443     0.40200
C790        C  0.02725337  0.61024273  0.64207373     0.36800
C791        C  0.13809342  0.58613972  0.60287092     0.36600
C792        C  0.02931344  0.59187902  0.50693712     0.37300
N793        N  0.15042904  0.72074603  0.64304876    -0.43500
N794        N  0.00488436  0.59347338  0.63974350    -0.43900
N795        N  0.00920392  0.60232291  0.48737677    -0.41300
N796        N  0.16181231  0.58716624  0.62081215    -0.42700
H797        H  0.12981884  0.55307972  0.54185965     0.13500
H798        H  0.03565454  0.62091262  0.56751888     0.09900
H799        H  0.12558331  0.65097737  0.60050873     0.11000
H800        H  0.03302385  0.65921923  0.68810771     0.16800
C801        C  0.50589972  0.49706674  0.90728013    -0.01400
C802        C  0.47263856  0.49492188  0.91515316     0.07200
C803        C  0.46241100  0.98971176  0.95332275    -0.07300
C804        C  0.48588041  0.98827069  0.98243617     0.04700
C805        C  0.52110626  0.49459016  0.97444401    -0.14600
C806        C  0.52904175  0.49550166  0.93645763    -0.07900
C807        C  0.44713274  0.49817389  0.88528646     0.05600
C808        C  0.44627733  0.97728240  0.85593159    -0.09000
C809        C  0.42371365  0.98015238  0.82636011     0.00600
C810        C  0.40007426  0.50380204  0.82678354     0.00500
C811        C  0.40168485  0.52677950  0.85561447    -0.12600
C812        C  0.42471698  0.52397549  0.88487791     0.00900
C813        C  0.42702347  0.95875266  0.79475433     0.40200
C814        C  0.42510760  0.54792472  0.91414045     0.36800
C815        C  0.51657074  0.50424379  0.86997075     0.36600
C816        C  0.47301367  0.97622690  0.01703188     0.37300
N817        N  0.42978573  0.94172783  0.76935139    -0.43500
N818        N  0.42556574  0.56694802  0.93778848    -0.43900
N819        N  0.46223461  0.96261026  0.54507162    -0.41300
N820        N  0.52487042  0.51024080  0.84006259    -0.42700
H821        H  0.05208815  0.49764281  0.93090418     0.13500
H822        H  0.43682478  0.98560946  0.95924056     0.09900
H823        H  0.46476266  0.95859159  0.85497958     0.11000
H824        H  0.38438639  0.54653616  0.85583047     0.16800
C825        C  0.45586097  0.52412863  0.66428417    -0.01400
C826        C  0.45258851  0.51772216  0.62566020     0.07200
C827        C  0.42038336  0.01008632  0.61073429    -0.07300
C828        C  0.39344756  0.00535338  0.63387242     0.04700
C829        C  0.39900079  0.50966675  0.67310906    -0.14600
C830        C  0.42886396  0.52098836  0.68733284    -0.07900
C831        C  0.48106467  0.51874227  0.60047402     0.05600
C832        C  0.50629246  0.99888703  0.60771177    -0.09000
C833        C  0.53233858  0.99537547  0.58299230     0.00600
C834        C  0.53087819  0.50805408  0.54511100     0.00500
C835        C  0.50540024  0.53135676  0.54137065    -0.12600
C836        C  0.48156835  0.53729421  0.56823918     0.00900
C837        C  0.05915947  0.97862178  0.60288225     0.40200
C838        C  0.45683421  0.56132945  0.56104062     0.36800
C839        C  0.48677482  0.53291608  0.68128320     0.36600
C840        C  0.36224744  0.99712997  0.61720349     0.37300
N841        N  0.07829973  0.96528934  0.62121320    -0.43500
N842        N  0.43727363  0.58088942  0.55544601    -0.43900
N843        N  0.33729250  0.99042806  0.60376260    -0.41300
N844        N  0.51162528  0.53935267  0.69515983    -0.42700
H845        H  0.43125005  0.52675014  0.71683428     0.13500
H846        H  0.41741027  0.00683057  0.58082627     0.09900
H847        H  0.50640560  0.98529497  0.63350178     0.11000
H848        H  0.50094131  0.54213155  0.51460666     0.16800
C849        C  0.18167861  0.52934544  0.94204775    -0.01400
C850        C  0.18095267  0.51461125  0.90711759     0.07200
C851        C  0.15158225  0.00147225  0.89668262    -0.07300
C852        C  0.12458439  0.99792123  0.92012806     0.04700
C853        C  0.12776525  0.50505171  0.95860146    -0.14600
C854        C  0.15570040  0.52480590  0.96647671    -0.07900
C855        C  0.20930852  0.51433833  0.88178997     0.05600
C856        C  0.22260062  0.98487067  0.87523393    -0.09000
C857        C  0.24782349  0.98167425  0.84936510     0.00600
C858        C  0.25987259  0.51002430  0.82890854     0.00500
C859        C  0.24320142  0.53918054  0.83514601    -0.12600
C860        C  0.21843346  0.54159351  0.86156931     0.00900
C861        C  0.26116746  0.95003623  0.84310393     0.40200
C862        C  0.20276294  0.57224157  0.86743977     0.36800
C863        C  0.20973590  0.54763434  0.95444348     0.36600
C864        C  0.09754564  0.98529203  0.89897222     0.37300
N865        N  0.27188118  0.92464688  0.83831516    -0.43500
N866        N  0.19060338  0.59694330  0.87255432    -0.43900
N867        N  0.07864358  0.97403307  0.87849978    -0.41300
N868        N  0.23220367  0.56245223  0.96405108    -0.42700
H869        H  0.15916879  0.53507176  0.99386739     0.13500
H870        H  0.15059364  0.99235958  0.86815871     0.09900
H871        H  0.21329694  0.96369561  0.88887354     0.11000
H872        H  0.24928547  0.56026122  0.81914681     0.16800
C873        C  0.22848315  0.52387656  0.61415742    -0.01400
C874        C  0.20297597  0.50155974  0.61920238     0.07200
C875        C  0.20144211  0.98126973  0.65306564    -0.07300
C876        C  0.22586671  0.98481653  0.68054537     0.04700
C877        C  0.25351791  0.50820784  0.67356761    -0.14600
C878        C  0.25342389  0.52709528  0.64129487    -0.07900
C879        C  0.17743484  0.49591831  0.58973891     0.05600
C880        C  0.18649274  0.98146616  0.55497918    -0.09000
C881        C  0.16425533  0.98032427  0.52483400     0.00600
C882        C  0.13110449  0.49401503  0.52835123     0.00500
C883        C  0.12187204  0.49961571  0.56538405    -0.12600
C884        C  0.14412921  0.50149929  0.59561427     0.00900
C885        C  0.17822630  0.96735673  0.49101027     0.40200
C886        C  0.13260578  0.51184955  0.63169097     0.36800
C887        C  0.22943904  0.54375673  0.58133145     0.36600
C888        C  0.22244552  0.96776039  0.71526005     0.37300
N889        N  0.19051736  0.95680295  0.46471084    -0.43500
N890        N  0.12333954  0.51993672  0.66065260    -0.43900
N891        N  0.21967237  0.95428638  0.74318159    -0.41300
N892        N  0.22999194  0.55959189  0.55493750    -0.42700
H893        H  0.27333368  0.54363290  0.63672919     0.13500
H894        H  0.18127676  0.96510186  0.65776818     0.09900
H895        H  0.21174351  0.97429409  0.55093123     0.11000
H896        H  0.09780761  0.50805808  0.56940282     0.16800
C897        C  0.60592257  0.49787306  0.99443065    -0.01900
O898        O  0.79316245  0.48206327  0.28606475    -0.73800
O899        O  0.86072054  0.48303444  0.21187028    -0.73800
O900        O  0.85918456  0.48079074  0.28717730    -0.73900
O901        O  0.79423664  0.48229605  0.21078944    -0.73900
O902        O  0.79282293  0.03395136  0.21291450    -0.73900
O903        O  0.85962050  0.03159192  0.29091322    -0.73800
O904        O  0.85959645  0.03470993  0.21519701    -0.73800
O905        O  0.79352079  0.03308331  0.28819475    -0.73900
Ni906      Ni  0.82683588  0.48017858  0.24882893     1.25400
Ni907      Ni  0.82644470  0.03525426  0.25178975     1.25400
C908        C  0.78188540  0.00662593  0.29963140     0.88400
C909        C  0.87088211  0.00855845  0.20193633     0.88300
C910        C  0.87022203  0.00407794  0.30193132     0.88300
C911        C  0.78122548  0.00712737  0.20082852     0.88500
C912        C  0.54810638  0.99902683  0.50579644    -0.01900
C913        C  0.57620540  0.02808631  0.49868437    -0.01900
O914        O  0.60366129  0.28431158  0.21578312    -0.73800
O915        O  0.60213403  0.21578168  0.28853268    -0.73800
O916        O  0.60525297  0.21893654  0.21340861    -0.73900
O917        O  0.60236090  0.28141664  0.29117665    -0.73900
O918        O  0.54799904  0.28359590  0.28662008    -0.73900
O919        O  0.55087382  0.21639170  0.21212703    -0.73800
O920        O  0.54772678  0.21789129  0.28750987    -0.73800
O921        O  0.54938294  0.28169767  0.21129245    -0.73900
Ni922      Ni  0.60529210  0.25014699  0.25239982     1.25400
Ni923      Ni  0.54705408  0.24988801  0.24934551     1.25400
C924        C  0.57643382  0.29402180  0.20130640     0.89800
C925        C  0.57437163  0.20532145  0.29962888     0.88300
C926        C  0.57883059  0.20673667  0.20044785     0.88300
C927        C  0.57508499  0.29366055  0.30088579     0.88500
C928        C  0.57677461  0.47114272  0.49915588    -0.01900
C929        C  0.55955901  0.37552576  0.34326476    -0.01400
C930        C  0.58008994  0.37497574  0.37534045     0.07200
C931        C  0.59831750  0.34720893  0.38313228    -0.07300
C932        C  0.59646448  0.32031358  0.35968522     0.04700
C933        C  0.57559607  0.32062654  0.32792475    -0.14600
C934        C  0.55727868  0.34837174  0.32006708    -0.07900
C935        C  0.57933311  0.40102090  0.40390998     0.05600
C936        C  0.54982556  0.40732963  0.42113153    -0.09000
C937        C  0.54775494  0.42767748  0.45224471     0.00600
C938        C  0.57508539  0.44744304  0.46400009     0.00500
C939        C  0.60505109  0.43769477  0.44808103    -0.12600
C940        C  0.60751405  0.41583649  0.41826204     0.00900
C941        C  0.51840977  0.42177988  0.47255558     0.40200
C942        C  0.63908395  0.41029230  0.40183394     0.36800
C943        C  0.54099890  0.40384271  0.33337838     0.36600
C944        C  0.61529678  0.29223008  0.36969927     0.37300
N945        N  0.49253170  0.41386314  0.99126552    -0.43500
N946        N  0.66437299  0.40608223  0.38855881    -0.43900
N947        N  0.63038482  0.26973710  0.37778208    -0.41300
N948        N  0.02942954  0.42508086  0.32657355    -0.42700
H949        H  0.54180360  0.34912113  0.29524829     0.13500
H950        H  0.61335694  0.34619303  0.40828129     0.09900
H951        H  0.52856589  0.39355950  0.41222936     0.11000
H952        H  0.62729387  0.44801485  0.45810596     0.16800
C953        C  0.54503271  0.41182916  0.07671915    -0.01400
C954        C  0.57323227  0.39718558  0.09182142     0.07200
C955        C  0.60289091  0.40383332  0.07505896    -0.07300
C956        C  0.60501416  0.42431185  0.04419674     0.04700
C957        C  0.57800385  0.44479445  0.03316348    -0.14600
C958        C  0.54779297  0.43448732  0.04786887    -0.07900
C959        C  0.57261433  0.37209531  0.12173994     0.05600
C960        C  0.55259606  0.34508246  0.11683029    -0.09000
C961        C  0.55354427  0.31959879  0.14224722     0.00600
C962        C  0.57560446  0.32017563  0.17306147     0.00500
C963        C  0.59574015  0.34709905  0.17801596    -0.12600
C964        C  0.59411459  0.37304741  0.15312132     0.00900
C965        C  0.53231325  0.29260179  0.13519986     0.40200
C966        C  0.61424803  0.40071545  0.16093764     0.36800
C967        C  0.51318976  0.40626587  0.09220034     0.36600
C968        C  0.63193956  0.41507788  0.02127670     0.37300
N969        N  0.51520885  0.27102561  0.12959663    -0.43500
N970        N  0.63036123  0.42287243  0.16732229    -0.43900
N971        N  0.65309761  0.40323088  0.00500298    -0.41300
N972        N  0.48759308  0.40204990  0.10454558    -0.42700
H973        H  0.52577611  0.44619103  0.03899038     0.13500
H974        H  0.62413416  0.38981791  0.08360381     0.09900
H975        H  0.53663691  0.34347413  0.09247503     0.11000
H976        H  0.61221910  0.34825085  0.20196553     0.16800
C977        C  0.54202267  0.07835212  0.41122517    -0.01400
C978        C  0.56945798  0.09541969  0.39929946     0.07200
C979        C  0.59800130  0.09262380  0.42036973    -0.07300
C980        C  0.59934706  0.07464565  0.45326735     0.04700
C981        C  0.57400705  0.05187559  0.46269801    -0.14600
C982        C  0.54435589  0.05817580  0.44271391    -0.07900
C983        C  0.56808578  0.12155693  0.37065132     0.05600
C984        C  0.54722637  0.14794059  0.37628348    -0.09000
C985        C  0.54886621  0.17532414  0.35369686     0.00600
C986        C  0.57260566  0.17735176  0.32540180     0.00500
C987        C  0.59333480  0.15087628  0.31960683    -0.12600
C988        C  0.59087521  0.12304758  0.34139242     0.00900
C989        C  0.52650179  0.20138389  0.36107599     0.40200
C990        C  0.61125582  0.09581163  0.33248160     0.36800
C991        C  0.51085227  0.08175859  0.39227915     0.36600
C992        C  0.62372123  0.08745822  0.47869185     0.37300
N993        N  0.50838046  0.22210090  0.36703319    -0.43500
N994        N  0.62722040  0.07378373  0.32505474    -0.43900
N995        N  0.64722734  0.09820068  0.99805711    -0.41300
N996        N  0.48589274  0.08427022  0.37696535    -0.42700
H997        H  0.52155680  0.04994661  0.45356356     0.13500
H998        H  0.61822239  0.10834392  0.41374481     0.09900
H999        H  0.53015717  0.14755655  0.39916436     0.11000
H1000       H  0.61090410  0.15154320  0.29723763     0.16800
C1001       C  0.61234812  0.08378923  0.08280544    -0.01400
C1002       C  0.58524605  0.10263954  0.09245894     0.07200
C1003       C  0.55787378  0.10129932  0.06930505    -0.07300
C1004       C  0.55625474  0.08084186  0.03834499     0.04700
C1005       C  0.58041303  0.05581872  0.03243783    -0.14600
C1006       C  0.60995400  0.06202997  0.05265977    -0.07900
C1007       C  0.58552758  0.12751556  0.12264730     0.05600
C1008       C  0.60848207  0.15240967  0.12165841    -0.09000
C1009       C  0.60648311  0.17863802  0.14622553     0.00600
C1010       C  0.58104445  0.18035212  0.17258946     0.00500
C1011       C  0.55806279  0.15554411  0.17348118    -0.12600
C1012       C  0.56003208  0.12942032  0.14886745     0.00900
C1013       C  0.62970402  0.20433411  0.14217554     0.40200
C1014       C  0.53486709  0.10534257  0.15019093     0.36800
C1015       C  0.64313592  0.08668760  0.10270869     0.36600
C1016       C  0.53208252  0.09198848  0.01170967     0.37300
N1017       N  0.64819208  0.22500403  0.13879702    -0.43500
N1018       N  0.51435701  0.08636569  0.15051572    -0.43900
N1019       N  0.51198480  0.10315586  0.99269186    -0.41300
N1020       N  0.66785680  0.08897262  0.11857305    -0.42700
H1021       H  0.63242347  0.05123979  0.04405685     0.13500
H1022       H  0.53847483  0.11875557  0.07370229     0.09900
H1023       H  0.62721126  0.15209094  0.10053865     0.11000
H1024       H  0.53852130  0.15646240  0.19361557     0.16800
C1025       C  0.00151229  0.99353452  0.41048567    -0.01400
C1026       C  0.96849737  0.99152941  0.41983208     0.07200
C1027       C  0.96123397  0.48624607  0.45517504    -0.07300
C1028       C  0.98559092  0.48476295  0.48324398     0.04700
C1029       C  0.01904574  0.99228796  0.47690124    -0.14600
C1030       C  0.02562254  0.99274155  0.43868390    -0.07900
C1031       C  0.94204288  0.99437221  0.39090321     0.05600
C1032       C  0.94226376  0.47493514  0.35853518    -0.09000
C1033       C  0.91985470  0.47900785  0.32914622     0.00600
C1034       C  0.89575663  0.00122809  0.33173773     0.00500
C1035       C  0.89616795  0.02295648  0.36187466    -0.12600
C1036       C  0.91884566  0.01955202  0.39146645     0.00900
C1037       C  0.92258673  0.45797991  0.29711100     0.40200
C1038       C  0.91816579  0.04238993  0.42188571     0.36800
C1039       C  0.01098351  0.99959987  0.37248268     0.36600
C1040       C  0.97403007  0.47218385  0.51818220     0.37300
N1041       N  0.92479134  0.44127334  0.27134903    -0.43500
N1042       N  0.91760765  0.06048648  0.44648519    -0.43900
N1043       N  0.96240646  0.46482278  0.04476713    -0.41300
N1044       N  0.01818211  0.00459784  0.34193847    -0.42700
H1045       H  0.55046586  0.99998784  0.43125127     0.13500
H1046       H  0.93587098  0.48202441  0.46207786     0.09900
H1047       H  0.96016130  0.45571944  0.35709743     0.11000
H1048       H  0.87840416  0.04229949  0.36264569     0.16800
C1049       C  0.95585992  0.02155010  0.16646564    -0.01400
C1050       C  0.95123267  0.02022818  0.12715079     0.07200
C1051       C  0.92166858  0.51576804  0.11314874    -0.07300
C1052       C  0.89476320  0.51230543  0.13663669     0.04700
C1053       C  0.89807111  0.01069252  0.17561658    -0.14600
C1054       C  0.92941210  0.01665231  0.19011492    -0.07900
C1055       C  0.97944409  0.02028154  0.10088448     0.05600
C1056       C  0.00775785  0.49947483  0.10830755    -0.09000
C1057       C  0.03358919  0.49555692  0.08327010     0.00600
C1058       C  0.02929741  0.00829795  0.04498528     0.00500
C1059       C  0.00383316  0.03166164  0.04100696    -0.12600
C1060       C  0.98016183  0.03834067  0.06807836     0.00900
C1061       C  0.56037183  0.48054353  0.10168594     0.40200
C1062       C  0.95583388  0.06265207  0.06034121     0.36800
C1063       C  0.98736994  0.02803980  0.18352020     0.36600
C1064       C  0.86241374  0.50988250  0.12028128     0.37300
N1065       N  0.57990646  0.46798768  0.12022349    -0.43500
N1066       N  0.93644496  0.08223950  0.05410824    -0.43900
N1067       N  0.83642785  0.50826108  0.10725340    -0.41300
N1068       N  0.01260459  0.03299082  0.19733344    -0.42700
H1069       H  0.93316135  0.01777404  0.22015341     0.13500
H1070       H  0.91780372  0.51445840  0.08318146     0.09900
H1071       H  0.00783899  0.48570669  0.13395298     0.11000
H1072       H  0.99954884  0.04230792  0.01409632     0.16800
C1073       C  0.67761953  0.03162780  0.43907996    -0.01400
C1074       C  0.67600399  0.01685246  0.40420735     0.07200
C1075       C  0.65044169  0.50399984  0.39557025    -0.07300
C1076       C  0.62388571  0.50053121  0.41946023     0.04700
C1077       C  0.62503706  0.00620320  0.45756005    -0.14600
C1078       C  0.65247222  0.02673889  0.46436000    -0.07900
C1079       C  0.70410016  0.01506975  0.37889550     0.05600
C1080       C  0.72225282  0.48732917  0.37529001    -0.09000
C1081       C  0.74683621  0.48377357  0.34875594     0.00600
C1082       C  0.75524378  0.00827419  0.32735818     0.00500
C1083       C  0.74059380  0.03842894  0.33421219    -0.12600
C1084       C  0.71537241  0.04200037  0.35974623     0.00900
C1085       C  0.76182463  0.45258778  0.34470055     0.40200
C1086       C  0.70112047  0.07336922  0.36537983     0.36800
C1087       C  0.70615647  0.04941592  0.45102825     0.36600
C1088       C  0.59655996  0.48838146  0.39843949     0.37300
N1089       N  0.77375227  0.42751636  0.34172775    -0.43500
N1090       N  0.68988390  0.09853646  0.37018302    -0.43900
N1091       N  0.57764204  0.47754790  0.37767563    -0.41300
N1092       N  0.72899568  0.06374690  0.46048938    -0.42700
H1093       H  0.65668032  0.03679028  0.49168820     0.13500
H1094       H  0.64904952  0.49503965  0.36698124     0.09900
H1095       H  0.71450238  0.46666429  0.39107666     0.11000
H1096       H  0.74860388  0.05949495  0.31936890     0.16800
C1097       C  0.72817815  0.02118344  0.11484472    -0.01400
C1098       C  0.70339937  0.99805232  0.11935091     0.07200
C1099       C  0.70605535  0.48042448  0.14760556    -0.07300
C1100       C  0.72989718  0.48426388  0.17558532     0.04700
C1101       C  0.75309178  0.00580263  0.17434808    -0.14600
C1102       C  0.75262206  0.02507576  0.14241270    -0.07900
C1103       C  0.67775360  0.99253483  0.09016723     0.05600
C1104       C  0.68888941  0.48208037  0.05141437    -0.09000
C1105       C  0.66560126  0.47932981  0.02239613     0.00600
C1106       C  0.63113531  0.99142218  0.02939023     0.00500
C1107       C  0.62226259  0.99762227  0.06632078    -0.12600
C1108       C  0.64475018  0.99936777  0.09622565     0.00900
C1109       C  0.67820385  0.46481980  0.98867333     0.40200
C1110       C  0.63392294  0.01125067  0.13196578     0.36800
C1111       C  0.72896007  0.04113094  0.08209816     0.36600
C1112       C  0.72741233  0.46483191  0.20868273     0.37300
N1113       N  0.68931592  0.45300169  0.96238425    -0.43500
N1114       N  0.62519417  0.02070961  0.16059613    -0.43900
N1115       N  0.72530750  0.44931310  0.23520741    -0.41300
N1116       N  0.72947078  0.05705597  0.05578473    -0.42700
H1117       H  0.77195940  0.04235795  0.13837025     0.13500
H1118       H  0.68710242  0.46259430  0.15083587     0.09900
H1119       H  0.71409888  0.47514106  0.04666960     0.11000
H1120       H  0.59850619  0.00681128  0.07042079     0.16800
C1121       C  0.60476263  0.50032722  0.49531416    -0.01900
O1122       O  0.79555721  0.48046551  0.78597969    -0.73800
O1123       O  0.85990156  0.48114117  0.70879334    -0.73800
O1124       O  0.86164573  0.47882931  0.78422231    -0.73900
O1125       O  0.79344063  0.48146108  0.71089410    -0.73900
O1126       O  0.79282113  0.03298230  0.71098122    -0.73900
O1127       O  0.86091348  0.03182817  0.78701992    -0.73800
O1128       O  0.85928075  0.03362827  0.71145863    -0.73800
O1129       O  0.79491134  0.03288323  0.78666962    -0.73900
Ni1130     Ni  0.82764630  0.47859340  0.74730791     1.25400
Ni1131     Ni  0.82695753  0.03474012  0.74896680     1.25400
C1132       C  0.78443720  0.00647108  0.79973089     0.88400
C1133       C  0.87017807  0.00729377  0.69821896     0.88300
C1134       C  0.87217997  0.00457719  0.79792799     0.88300
C1135       C  0.78100476  0.00609766  0.69955129     0.88500
C1136       C  0.54897651  0.00027200  0.00637834    -0.01900
C1137       C  0.57768375  0.02883079  0.99970516    -0.01900
O1138       O  0.60081742  0.28442311  0.71569417    -0.73800
O1139       O  0.59986298  0.21635645  0.78848155    -0.73800
O1140       O  0.60492836  0.21909313  0.71361310    -0.73900
O1141       O  0.59674662  0.28166738  0.79125952    -0.73900
O1142       O  0.54246825  0.28146553  0.78437728    -0.73900
O1143       O  0.55071724  0.21487900  0.71012505    -0.73800
O1144       O  0.54545864  0.21593583  0.78514149    -0.73800
O1145       O  0.54682186  0.28008554  0.70884291    -0.73900
Ni1146     Ni  0.60251078  0.25056086  0.75247506     1.25400
Ni1147     Ni  0.54442634  0.24805014  0.74695860     1.25400
C1148       C  0.57385504  0.29313263  0.69983604     0.89800
C1149       C  0.57233594  0.20469480  0.79846916     0.88300
C1150       C  0.57928426  0.20588560  0.69983457     0.88300
C1151       C  0.56853569  0.29231176  0.80016301     0.88500
C1152       C  0.57676365  0.46996852  0.99948120    -0.01900
C1153       C  0.55671374  0.37423891  0.84362546    -0.01400
C1154       C  0.57190889  0.37022958  0.87900740     0.07200
C1155       C  0.58296447  0.33962418  0.88940531    -0.07300
C1156       C  0.58029630  0.31355602  0.86472198     0.04700
C1157       C  0.56676682  0.31794196  0.82869522    -0.14600
C1158       C  0.55451527  0.34819793  0.81868907    -0.07900
C1159       C  0.57342061  0.39663973  0.90714900     0.05600
C1160       C  0.54444636  0.40681376  0.92297358    -0.09000
C1161       C  0.54433240  0.42732266  0.95410232     0.00600
C1162       C  0.57319847  0.44524277  0.96525620     0.00500
C1163       C  0.60228107  0.43247478  0.94999312    -0.12600
C1164       C  0.60284275  0.40852159  0.92211543     0.00900
C1165       C  0.51573481  0.42211011  0.97594163     0.40200
C1166       C  0.63392077  0.39717817  0.90867790     0.36800
C1167       C  0.54357163  0.40485658  0.83211588     0.36600
C1168       C  0.59026292  0.28217616  0.87743265     0.37300
N1169       N  0.49464910  0.41325103  0.48650490    -0.43500
N1170       N  0.65880680  0.38785401  0.89806043    -0.43900
N1171       N  0.59777944  0.25691598  0.88770030    -0.41300
N1172       N  0.02942843  0.42770684  0.82365737    -0.42700
H1173       H  0.54400604  0.35167457  0.79102922     0.13500
H1174       H  0.59318630  0.33600229  0.91717042     0.09900
H1175       H  0.52194232  0.39523651  0.91378696     0.11000
H1176       H  0.62526599  0.44210132  0.95886620     0.16800
C1177       C  0.54558776  0.40979358  0.57336955    -0.01400
C1178       C  0.57385787  0.39518086  0.58832815     0.07200
C1179       C  0.60358772  0.40293746  0.57223511    -0.07300
C1180       C  0.60564817  0.42463267  0.54237350     0.04700
C1181       C  0.57835783  0.44496290  0.53187955    -0.14600
C1182       C  0.54826219  0.43353553  0.54570573    -0.07900
C1183       C  0.57314711  0.36976245  0.61802536     0.05600
C1184       C  0.55317236  0.34268674  0.61288533    -0.09000
C1185       C  0.55297329  0.31768817  0.63903796     0.00600
C1186       C  0.57366523  0.31890306  0.67102302     0.00500
C1187       C  0.59398306  0.34569816  0.67598755    -0.12600
C1188       C  0.59368223  0.37103712  0.65022055     0.00900
C1189       C  0.53222069  0.29043140  0.63147287     0.40200
C1190       C  0.61424367  0.39838251  0.65804030     0.36800
C1191       C  0.51364319  0.40297641  0.58787898     0.36600
C1192       C  0.63299149  0.41696622  0.51935630     0.37300
N1193       N  0.51558591  0.26859373  0.62537296    -0.43500
N1194       N  0.63082588  0.42018707  0.66449480    -0.43900
N1195       N  0.65462341  0.40641873  0.50272272    -0.41300
N1196       N  0.48799889  0.39761851  0.59947741    -0.42700
H1197       H  0.52620531  0.44503636  0.53695587     0.13500
H1198       H  0.62502585  0.38910878  0.58051003     0.09900
H1199       H  0.53804386  0.34071503  0.58789013     0.11000
H1200       H  0.60970907  0.34718866  0.70056238     0.16800
C1201       C  0.54445061  0.07907877  0.91224654    -0.01400
C1202       C  0.57181177  0.09641859  0.90074114     0.07200
C1203       C  0.60029489  0.09364451  0.92205609    -0.07300
C1204       C  0.60178599  0.07495674  0.95447168     0.04700
C1205       C  0.57616957  0.05244617  0.96369006    -0.14600
C1206       C  0.54664298  0.05909751  0.94375354    -0.07900
C1207       C  0.57018534  0.12240452  0.87192412     0.05600
C1208       C  0.54697239  0.14714437  0.87552662    -0.09000
C1209       C  0.54691784  0.17378290  0.85174802     0.00600
C1210       C  0.57148530  0.17703831  0.82464452     0.00500
C1211       C  0.59477928  0.15237478  0.82105937    -0.12600
C1212       C  0.59389844  0.12502286  0.84376345     0.00900
C1213       C  0.52178355  0.19778118  0.85652890     0.40200
C1214       C  0.61683999  0.09936544  0.83679219     0.36800
C1215       C  0.51333154  0.08214856  0.89306793     0.36600
C1216       C  0.62668747  0.08670941  0.97991394     0.37300
N1217       N  0.50141725  0.21681496  0.86024226    -0.43500
N1218       N  0.63488062  0.07855671  0.83097853    -0.43900
N1219       N  0.64380765  0.09982220  0.49670809    -0.41300
N1220       N  0.48841396  0.08448149  0.87762609    -0.42700
H1221       H  0.52371052  0.05144505  0.95476187     0.13500
H1222       H  0.62044710  0.10956511  0.91584250     0.09900
H1223       H  0.52914711  0.14605526  0.89758740     0.11000
H1224       H  0.61318744  0.15401198  0.79966852     0.16800
C1225       C  0.61239416  0.08360748  0.58041969    -0.01400
C1226       C  0.58555325  0.10253811  0.59071082     0.07200
C1227       C  0.55766883  0.10099560  0.56826473    -0.07300
C1228       C  0.55518559  0.08000465  0.53780750     0.04700
C1229       C  0.57926736  0.05501165  0.53146981    -0.14600
C1230       C  0.60920226  0.06148879  0.55077988    -0.07900
C1231       C  0.58628056  0.12706713  0.62138011     0.05600
C1232       C  0.61023035  0.15114082  0.62184226    -0.09000
C1233       C  0.60887776  0.17674686  0.64741690     0.00600
C1234       C  0.58262596  0.17909150  0.67263995     0.00500
C1235       C  0.55896872  0.15487216  0.67242033    -0.12600
C1236       C  0.56063658  0.12910099  0.64737965     0.00900
C1237       C  0.63393234  0.20096269  0.64588481     0.40200
C1238       C  0.53479270  0.10571790  0.64783229     0.36800
C1239       C  0.64392736  0.08707890  0.59858313     0.36600
C1240       C  0.53026219  0.09059125  0.51175878     0.37300
N1241       N  0.65407145  0.22031811  0.64472935    -0.43500
N1242       N  0.51368106  0.08739466  0.64717153    -0.43900
N1243       N  0.50962042  0.10125707  0.49310982    -0.41300
N1244       N  0.66936306  0.08992743  0.61272302    -0.42700
H1245       H  0.63152744  0.05092898  0.54150293     0.13500
H1246       H  0.53841487  0.11855434  0.57287258     0.09900
H1247       H  0.62936316  0.15071203  0.60122322     0.11000
H1248       H  0.53894353  0.15606380  0.69191712     0.16800
C1249       C  0.00238609  0.99534469  0.90846055    -0.01400
C1250       C  0.96920869  0.99310798  0.91691055     0.07200
C1251       C  0.96227701  0.48752739  0.95370265    -0.07300
C1252       C  0.98595126  0.48624496  0.98258462     0.04700
C1253       C  0.01853462  0.99360416  0.97530797    -0.14600
C1254       C  0.02588519  0.99424088  0.93724399    -0.07900
C1255       C  0.94340308  0.99594951  0.88727976     0.05600
C1256       C  0.94428045  0.47353983  0.85799139    -0.09000
C1257       C  0.92171763  0.47642992  0.82845449     0.00600
C1258       C  0.89798172  0.00251498  0.82736126     0.00500
C1259       C  0.89744340  0.02391989  0.85777439    -0.12600
C1260       C  0.91974357  0.02070509  0.88770551     0.00900
C1261       C  0.92321253  0.45303123  0.79861770     0.40200
C1262       C  0.91810451  0.04324737  0.91836523     0.36800
C1263       C  0.01258169  0.00197551  0.87083686     0.36600
C1264       C  0.97344665  0.47474966  0.01761110     0.37300
N1265       N  0.92450207  0.43429118  0.77472035    -0.43500
N1266       N  0.91674886  0.06114153  0.94311405    -0.43900
N1267       N  0.96371653  0.46108642  0.54509128    -0.41300
N1268       N  0.02029199  0.00746913  0.84058084    -0.42700
H1269       H  0.55236734  0.00043373  0.93154703     0.13500
H1270       H  0.93670578  0.48367009  0.95989014     0.09900
H1271       H  0.96153113  0.45371501  0.85817553     0.11000
H1272       H  0.87911662  0.04275356  0.85857308     0.16800
C1273       C  0.95535565  0.02211595  0.66556250    -0.01400
C1274       C  0.95212477  0.01902645  0.62629752     0.07200
C1275       C  0.92160435  0.50651908  0.61064826    -0.07300
C1276       C  0.89534298  0.50170253  0.63470143     0.04700
C1277       C  0.89787675  0.00905880  0.67271444    -0.14600
C1278       C  0.92826301  0.01746503  0.68815623    -0.07900
C1279       C  0.98099683  0.01990536  0.60129901     0.05600
C1280       C  0.00666966  0.49893371  0.60657269    -0.09000
C1281       C  0.03272076  0.49523749  0.58193620     0.00600
C1282       C  0.03086562  0.00779525  0.54590429     0.00500
C1283       C  0.00553495  0.03122817  0.54171999    -0.12600
C1284       C  0.98180451  0.03794490  0.56857705     0.00900
C1285       C  0.55945703  0.47807179  0.60132872     0.40200
C1286       C  0.95740890  0.06216759  0.56072148     0.36800
C1287       C  0.98610174  0.02966460  0.68376093     0.36600
C1288       C  0.86523610  0.48841438  0.62004259     0.37300
N1289       N  0.57875423  0.46460596  0.61929890    -0.43500
N1290       N  0.93807262  0.08179947  0.55446943    -0.43900
N1291       N  0.84114474  0.47743116  0.60860872    -0.41300
N1292       N  0.01063796  0.03529294  0.69882967    -0.42700
H1293       H  0.93082357  0.02033865  0.71819896     0.13500
H1294       H  0.91882719  0.50044461  0.58131080     0.09900
H1295       H  0.00676479  0.48577091  0.63269304     0.11000
H1296       H  0.00116409  0.04160045  0.51469253     0.16800
C1297       C  0.68204934  0.02986624  0.94345741    -0.01400
C1298       C  0.68106703  0.01541044  0.90834491     0.07200
C1299       C  0.65249295  0.49760204  0.89505701    -0.07300
C1300       C  0.62562817  0.49443933  0.91872128     0.04700
C1301       C  0.62763040  0.00652349  0.95961713    -0.14600
C1302       C  0.65569479  0.02605696  0.96758412    -0.07900
C1303       C  0.70961287  0.01411028  0.88326884     0.05600
C1304       C  0.72460512  0.48365661  0.87424840    -0.09000
C1305       C  0.75004494  0.48108769  0.84865998     0.00600
C1306       C  0.75950806  0.00805918  0.82964877     0.00500
C1307       C  0.74521667  0.03810395  0.83779376    -0.12600
C1308       C  0.72076837  0.04133889  0.86443734     0.00900
C1309       C  0.76648834  0.45054235  0.84517303     0.40200
C1310       C  0.70720410  0.07277166  0.87144067     0.36800
C1311       C  0.71108789  0.04611333  0.95681008     0.36600
C1312       C  0.59855544  0.48121729  0.89810906     0.37300
N1313       N  0.77983897  0.42612974  0.84263515    -0.43500
N1314       N  0.69673873  0.09810133  0.87723527    -0.43900
N1315       N  0.57924677  0.46971878  0.87834283    -0.41300
N1316       N  0.73448684  0.05902992  0.96726463    -0.42700
H1317       H  0.65932319  0.03596670  0.99511347     0.13500
H1318       H  0.65168678  0.48738575  0.86703503     0.09900
H1319       H  0.71697620  0.46260135  0.88940935     0.11000
H1320       H  0.75279094  0.05934385  0.82297653     0.16800
C1321       C  0.73108314  0.01765863  0.61094975    -0.01400
C1322       C  0.70414581  0.99723631  0.61699770     0.07200
C1323       C  0.70129832  0.48462937  0.65388083    -0.07300
C1324       C  0.72620810  0.48820615  0.68083833     0.04700
C1325       C  0.75337747  0.00490175  0.67255115    -0.14600
C1326       C  0.75535583  0.02137784  0.63869241    -0.07900
C1327       C  0.67819731  0.99227571  0.58786867     0.05600
C1328       C  0.68606597  0.48333274  0.55545047    -0.09000
C1329       C  0.66389706  0.48207972  0.52522779     0.00600
C1330       C  0.63094327  0.99174651  0.52747284     0.00500
C1331       C  0.62246440  0.99742942  0.56465163    -0.12600
C1332       C  0.64525621  0.99935090  0.59422971     0.00900
C1333       C  0.67812782  0.46929382  0.49146475     0.40200
C1334       C  0.63478201  0.01197125  0.62978647     0.36800
C1335       C  0.73423336  0.03519884  0.57657669     0.36600
C1336       C  0.72288506  0.47208451  0.71617205     0.37300
N1337       N  0.69072353  0.45901742  0.46520617    -0.43500
N1338       N  0.62637204  0.02213601  0.65822567    -0.43900
N1339       N  0.72027574  0.45941760  0.74462750    -0.41300
N1340       N  0.73668150  0.04909517  0.54890627    -0.42700
H1341       H  0.77632010  0.03645966  0.63351014     0.13500
H1342       H  0.68090214  0.46893609  0.65940308     0.09900
H1343       H  0.71132457  0.47615077  0.55147656     0.11000
H1344       H  0.59863753  0.00621589  0.56912105     0.16800
C1345       C  0.60538985  0.99871176  0.99606369    -0.01900
O1346       O  0.79270880  0.97977474  0.28696116    -0.73800
O1347       O  0.85975950  0.98124366  0.21213177    -0.73800
O1348       O  0.85887885  0.97827225  0.28760712    -0.73900
O1349       O  0.79319473  0.98051000  0.21194101    -0.73900
O1350       O  0.79376563  0.53573093  0.21112271    -0.73900
O1351       O  0.85984846  0.53415327  0.28994702    -0.73800
O1352       O  0.86049880  0.53652337  0.21423498    -0.73800
O1353       O  0.79368427  0.53538212  0.28674137    -0.73900
Ni1354     Ni  0.82619542  0.97806485  0.24949836     1.25400
Ni1355     Ni  0.82695021  0.53738315  0.25048115     1.25400
C1356       C  0.78237440  0.50893056  0.29871521     0.88400
C1357       C  0.87197713  0.51023278  0.20150881     0.88300
C1358       C  0.87050429  0.50673144  0.30116158     0.88300
C1359       C  0.78250794  0.50879509  0.19896496     0.88500
C1360       C  0.54842952  0.49978802  0.50557876    -0.01900
C1361       C  0.57590312  0.52934722  0.49840066    -0.01900
O1362       O  0.60078127  0.78381533  0.21533314    -0.73800
O1363       O  0.59971123  0.71414930  0.28658897    -0.73800
O1364       O  0.60283605  0.71862502  0.21171517    -0.73900
O1365       O  0.59978148  0.77957623  0.29097620    -0.73900
O1366       O  0.54540152  0.78168520  0.28645988    -0.73900
O1367       O  0.54847616  0.71575989  0.21021468    -0.73800
O1368       O  0.54529468  0.71608442  0.28544031    -0.73800
O1369       O  0.54651383  0.78100769  0.21083580    -0.73900
Ni1370     Ni  0.60271423  0.74912876  0.25130931     1.25400
Ni1371     Ni  0.54447033  0.74866092  0.24819243     1.25400
C1372       C  0.57349791  0.79341046  0.20084065     0.89800
C1373       C  0.57194687  0.70346012  0.29736206     0.88300
C1374       C  0.57654332  0.70639027  0.19852490     0.88300
C1375       C  0.57246825  0.79134029  0.30124130     0.88500
C1376       C  0.57594303  0.96974969  0.49999032    -0.01900
C1377       C  0.56037515  0.87277235  0.34592135    -0.01400
C1378       C  0.57867988  0.86996100  0.37951974     0.07200
C1379       C  0.59409162  0.84065211  0.38771229    -0.07300
C1380       C  0.59149457  0.81446192  0.36309229     0.04700
C1381       C  0.57299065  0.81726132  0.32964951    -0.14600
C1382       C  0.55755357  0.84650176  0.32146860    -0.07900
C1383       C  0.57834326  0.89578477  0.40848090     0.05600
C1384       C  0.54869918  0.90344765  0.42471860    -0.09000
C1385       C  0.54656428  0.92513337  0.45467469     0.00600
C1386       C  0.57406188  0.94490061  0.46583255     0.00500
C1387       C  0.60409229  0.93388680  0.45098881    -0.12600
C1388       C  0.60662304  0.91046222  0.42273921     0.00900
C1389       C  0.51724822  0.92000415  0.47525742     0.40200
C1390       C  0.63832939  0.90350773  0.40738502     0.36800
C1391       C  0.54466178  0.90255691  0.33567003     0.36600
C1392       C  0.60684190  0.78450463  0.37345242     0.37300
N1393       N  0.49221269  0.91485276  0.98818630    -0.43500
N1394       N  0.66378131  0.89824341  0.39501306    -0.43900
N1395       N  0.61893821  0.76040364  0.38174200    -0.41300
N1396       N  0.03228037  0.92707164  0.32720682    -0.42700
H1397       H  0.54394452  0.84907445  0.29544446     0.13500
H1398       H  0.60743819  0.83797145  0.41389184     0.09900
H1399       H  0.52724967  0.88993084  0.41589186     0.11000
H1400       H  0.62629379  0.94473104  0.46025354     0.16800
C1401       C  0.54308750  0.91097673  0.07516719    -0.01400
C1402       C  0.57096294  0.89581870  0.09035892     0.07200
C1403       C  0.60083570  0.90235028  0.07403488    -0.07300
C1404       C  0.60366926  0.92370798  0.04408850     0.04700
C1405       C  0.57697974  0.94466518  0.03318466    -0.14600
C1406       C  0.54647120  0.93417040  0.04697845    -0.07900
C1407       C  0.56998735  0.87091409  0.12050490     0.05600
C1408       C  0.54947945  0.84418451  0.11610046    -0.09000
C1409       C  0.55030335  0.81884639  0.14176242     0.00600
C1410       C  0.57254754  0.81942203  0.17244204     0.00500
C1411       C  0.59308347  0.84605697  0.17689834    -0.12600
C1412       C  0.59174876  0.87173819  0.15168238     0.00900
C1413       C  0.52898895  0.79186547  0.13490612     0.40200
C1414       C  0.61277873  0.89887207  0.15880924     0.36800
C1415       C  0.51097553  0.90549082  0.08997815     0.36600
C1416       C  0.63130055  0.91523804  0.02190413     0.37300
N1417       N  0.51189345  0.77026493  0.12938393    -0.43500
N1418       N  0.62974597  0.92052213  0.16456494    -0.43900
N1419       N  0.65305411  0.90391430  0.00616811    -0.41300
N1420       N  0.48514618  0.90137269  0.10174587    -0.42700
H1421       H  0.52469645  0.94615142  0.03797341     0.13500
H1422       H  0.62182247  0.88793095  0.08249427     0.09900
H1423       H  0.53337041  0.84258563  0.09187440     0.11000
H1424       H  0.60981087  0.84713182  0.20062908     0.16800
C1425       C  0.54075810  0.57740496  0.41019358    -0.01400
C1426       C  0.56788899  0.59466192  0.39789841     0.07200
C1427       C  0.59652245  0.59278178  0.41902513    -0.07300
C1428       C  0.59836911  0.57505820  0.45205112     0.04700
C1429       C  0.57337270  0.55216057  0.46186328    -0.14600
C1430       C  0.54355687  0.55782653  0.44203525    -0.07900
C1431       C  0.56602176  0.62011476  0.36862379     0.05600
C1432       C  0.54437351  0.64598593  0.37335562    -0.09000
C1433       C  0.54581766  0.67313606  0.35049708     0.00600
C1434       C  0.57009391  0.67540863  0.32283958     0.00500
C1435       C  0.59140977  0.64928694  0.31767397    -0.12600
C1436       C  0.58918489  0.62166767  0.33979553     0.00900
C1437       C  0.52281634  0.69882541  0.35712503     0.40200
C1438       C  0.61048838  0.59481370  0.33214274     0.36800
C1439       C  0.50933221  0.58036890  0.39164949     0.36600
C1440       C  0.62270720  0.58809418  0.47735172     0.37300
N1441       N  0.50423762  0.71929159  0.36239488    -0.43500
N1442       N  0.62717633  0.57298923  0.32608226    -0.43900
N1443       N  0.64735314  0.59855402  0.99647302    -0.41300
N1444       N  0.48416088  0.58259773  0.37673487    -0.42700
H1445       H  0.52088293  0.54996849  0.45353162     0.13500
H1446       H  0.61639981  0.60883750  0.41218245     0.09900
H1447       H  0.52698417  0.64552313  0.39591466     0.11000
H1448       H  0.60939026  0.65014484  0.29575068     0.16800
C1449       C  0.61310961  0.58377363  0.08127133    -0.01400
C1450       C  0.58567425  0.60208797  0.09121693     0.07200
C1451       C  0.55836692  0.60050729  0.06805764    -0.07300
C1452       C  0.55714734  0.58039217  0.03685688     0.04700
C1453       C  0.58136115  0.55539120  0.03100618    -0.14600
C1454       C  0.61088315  0.56185166  0.05119080    -0.07900
C1455       C  0.58540790  0.62694952  0.12142641     0.05600
C1456       C  0.60789839  0.65224027  0.12053919    -0.09000
C1457       C  0.60508348  0.67861113  0.14476570     0.00600
C1458       C  0.57921268  0.68013652  0.17059741     0.00500
C1459       C  0.55665915  0.65498009  0.17136475    -0.12600
C1460       C  0.55948857  0.62867291  0.14715979     0.00900
C1461       C  0.62806150  0.70455710  0.14104697     0.40200
C1462       C  0.53459791  0.60433088  0.14820290     0.36800
C1463       C  0.64409574  0.58764831  0.10051878     0.36600
C1464       C  0.53333351  0.59201063  0.01007477     0.37300
N1465       N  0.64637843  0.72541839  0.13802850    -0.43500
N1466       N  0.51422055  0.58522365  0.14822269    -0.43900
N1467       N  0.51348135  0.60360702  0.99107436    -0.41300
N1468       N  0.66899936  0.59084929  0.11577189    -0.42700
H1469       H  0.63345446  0.55133044  0.04241240     0.13500
H1470       H  0.53876753  0.61774853  0.07248878     0.09900
H1471       H  0.62688181  0.65213692  0.09972309     0.11000
H1472       H  0.53682763  0.65573236  0.19113740     0.16800
C1473       C  0.00202558  0.49410705  0.40880067    -0.01400
C1474       C  0.96899950  0.49221811  0.41813149     0.07200
C1475       C  0.96076210  0.98623582  0.45703025    -0.07300
C1476       C  0.98511712  0.98519985  0.48515683     0.04700
C1477       C  0.01943556  0.49231057  0.47517547    -0.14600
C1478       C  0.02607412  0.49300509  0.43701880    -0.07900
C1479       C  0.94258752  0.49580124  0.38932768     0.05600
C1480       C  0.94137304  0.97248819  0.36106852    -0.09000
C1481       C  0.91873514  0.97568387  0.33167478     0.00600
C1482       C  0.89631191  0.50396501  0.33053423     0.00500
C1483       C  0.89638977  0.52477576  0.36151929    -0.12600
C1484       C  0.91923615  0.52083199  0.39085688     0.00900
C1485       C  0.92051190  0.95289888  0.30120734     0.40200
C1486       C  0.91873005  0.54308334  0.42187663     0.36800
C1487       C  0.01159587  0.50052042  0.37090052     0.36600
C1488       C  0.97341484  0.97337205  0.52040751     0.37300
N1489       N  0.92191111  0.93463271  0.27682655    -0.43500
N1490       N  0.91842704  0.56076924  0.44688805    -0.43900
N1491       N  0.96096084  0.96439866  0.04453008    -0.41300
N1492       N  0.01883997  0.50575017  0.34042388    -0.42700
H1493       H  0.54943663  0.49903290  0.43089898     0.13500
H1494       H  0.93539456  0.98214837  0.46402613     0.09900
H1495       H  0.95904540  0.95303317  0.36049092     0.11000
H1496       H  0.87831938  0.54380231  0.36308883     0.16800
C1497       C  0.95776778  0.52104530  0.16725412    -0.01400
C1498       C  0.95348418  0.52019580  0.12784599     0.07200
C1499       C  0.91945096  0.01489568  0.11282399    -0.07300
C1500       C  0.89290375  0.01071766  0.13669941     0.04700
C1501       C  0.89951804  0.51196443  0.17559571    -0.14600
C1502       C  0.93091966  0.51675662  0.19052809    -0.07900
C1503       C  0.98182097  0.52028945  0.10164870     0.05600
C1504       C  0.00519363  0.99929796  0.10761291    -0.09000
C1505       C  0.03112969  0.99529317  0.08279390     0.00600
C1506       C  0.03119480  0.50799607  0.04520012     0.00500
C1507       C  0.00564070  0.53122097  0.04132114    -0.12600
C1508       C  0.98237216  0.53823311  0.06872165     0.00900
C1509       C  0.55938238  0.97873199  0.10234879     0.40200
C1510       C  0.95830686  0.56285205  0.06123090     0.36800
C1511       C  0.98922508  0.52661853  0.18487356     0.36600
C1512       C  0.86046960  0.00731044  0.12082119     0.37300
N1513       N  0.57862148  0.96538779  0.12052063    -0.43500
N1514       N  0.93916655  0.58272050  0.05521942    -0.43900
N1515       N  0.83438762  0.00490422  0.10822901    -0.41300
N1516       N  0.01436033  0.53083949  0.19926028    -0.42700
H1517       H  0.93440068  0.51750770  0.22061915     0.13500
H1518       H  0.91539202  0.01335392  0.08289781     0.09900
H1519       H  0.00498095  0.98544395  0.13320837     0.11000
H1520       H  0.00089324  0.54146912  0.01431557     0.16800
C1521       C  0.68050942  0.53300384  0.44209663    -0.01400
C1522       C  0.67910413  0.51859346  0.40698242     0.07200
C1523       C  0.64773416  0.00098376  0.39374459    -0.07300
C1524       C  0.62193075  0.99651477  0.41846524     0.04700
C1525       C  0.62673179  0.50889191  0.45895946    -0.14600
C1526       C  0.65465009  0.52866864  0.46679975    -0.07900
C1527       C  0.70717661  0.51711823  0.38149951     0.05600
C1528       C  0.71844620  0.98498262  0.37236525    -0.09000
C1529       C  0.74397206  0.98133810  0.34711505     0.00600
C1530       C  0.75643419  0.51048659  0.32740949     0.00500
C1531       C  0.74112959  0.54034743  0.33403462    -0.12600
C1532       C  0.71680653  0.54381614  0.36076589     0.00900
C1533       C  0.75821589  0.94984609  0.34284477     0.40200
C1534       C  0.70154546  0.57478352  0.36584762     0.36800
C1535       C  0.70935098  0.55003788  0.45453411     0.36600
C1536       C  0.59511832  0.98184196  0.39876266     0.37300
N1537       N  0.76953382  0.92451605  0.33976528    -0.43500
N1538       N  0.68940852  0.59961851  0.37009566    -0.43900
N1539       N  0.57597358  0.96925562  0.37970766    -0.41300
N1540       N  0.73258771  0.56366947  0.46414594    -0.42700
H1541       H  0.65841935  0.53861253  0.49431180     0.13500
H1542       H  0.64627458  0.99137348  0.36544865     0.09900
H1543       H  0.70955167  0.96419408  0.38710410     0.11000
H1544       H  0.74787793  0.56121378  0.31802329     0.16800
C1545       C  0.73087404  0.52269804  0.11159734    -0.01400
C1546       C  0.70634464  0.49918758  0.11537956     0.07200
C1547       C  0.70319800  0.97967262  0.15189107    -0.07300
C1548       C  0.72764859  0.98331482  0.17927032     0.04700
C1549       C  0.75505579  0.50716985  0.17153596    -0.14600
C1550       C  0.75489440  0.52663557  0.13971264    -0.07900
C1551       C  0.68045311  0.49397775  0.08637575     0.05600
C1552       C  0.68678128  0.98091810  0.05530167    -0.09000
C1553       C  0.66430291  0.97931952  0.02540579     0.00600
C1554       C  0.63237938  0.49101993  0.02717901     0.00500
C1555       C  0.62427004  0.49751056  0.06423526    -0.12600
C1556       C  0.64744228  0.50015467  0.09335309     0.00900
C1557       C  0.67787269  0.96567962  0.99169656     0.40200
C1558       C  0.63724674  0.51233582  0.12920881     0.36800
C1559       C  0.73165937  0.54321155  0.07932168     0.36600
C1560       C  0.72573968  0.96389666  0.21245202     0.37300
N1561       N  0.68980381  0.95460539  0.96545257    -0.43500
N1562       N  0.62915211  0.52212187  0.15794377    -0.43900
N1563       N  0.72412640  0.94833237  0.23899836    -0.41300
N1564       N  0.73227190  0.55971676  0.05349671    -0.42700
H1565       H  0.77401424  0.54426251  0.13632071     0.13500
H1566       H  0.68409666  0.96209580  0.15564894     0.09900
H1567       H  0.71200887  0.97369649  0.05120435     0.11000
H1568       H  0.60047530  0.50631420  0.06882943     0.16800
C1569       C  0.60425433  0.99834755  0.49484407    -0.01900
O1570       O  0.79494478  0.97956940  0.78686698    -0.73800
O1571       O  0.85900209  0.98013555  0.70876854    -0.73800
O1572       O  0.86097450  0.97845029  0.78420651    -0.73900
O1573       O  0.79252536  0.97951189  0.71145064    -0.73900
O1574       O  0.79432779  0.53491806  0.71134050    -0.73900
O1575       O  0.86209716  0.53214180  0.78783101    -0.73800
O1576       O  0.86106023  0.53458985  0.71239366    -0.73800
O1577       O  0.79596148  0.53379523  0.78686450    -0.73900
Ni1578     Ni  0.82685344  0.97751376  0.74767205     1.25400
Ni1579     Ni  0.82838931  0.53579129  0.74956517     1.25400
C1580       C  0.78501269  0.50723611  0.79901961     0.88400
C1581       C  0.87155021  0.50820885  0.69877438     0.88300
C1582       C  0.87313761  0.50470215  0.79838589     0.88300
C1583       C  0.78200769  0.50831886  0.69965736     0.88500
C1584       C  0.54974571  0.49993955  0.00529824    -0.01900
C1585       C  0.57854147  0.52829074  0.99832428    -0.01900
O1586       O  0.60073346  0.78473809  0.71676695    -0.73800
O1587       O  0.60010793  0.71616719  0.78855918    -0.73800
O1588       O  0.60328348  0.71952638  0.71370943    -0.73900
O1589       O  0.59860404  0.78137904  0.79221807    -0.73900
O1590       O  0.54419599  0.78232155  0.78716203    -0.73900
O1591       O  0.54897179  0.71644910  0.71161914    -0.73800
O1592       O  0.54564143  0.71678457  0.78687225    -0.73800
O1593       O  0.54649187  0.78159590  0.71162029    -0.73900
Ni1594     Ni  0.60260060  0.75056367  0.75297160     1.25400
Ni1595     Ni  0.54435941  0.74927202  0.74924866     1.25400
C1596       C  0.57358003  0.79411507  0.70196414     0.89800
C1597       C  0.57260198  0.70496884  0.79920456     0.88300
C1598       C  0.57711285  0.70711147  0.70027623     0.88300
C1599       C  0.57089867  0.79258752  0.80207909     0.88500
C1600       C  0.57628338  0.97059660  0.00021161    -0.01900
C1601       C  0.55788065  0.87427658  0.84532038    -0.01400
C1602       C  0.57573975  0.87165790  0.87927258     0.07200
C1603       C  0.59011209  0.84212472  0.88862681    -0.07300
C1604       C  0.58770956  0.81573456  0.86442995     0.04700
C1605       C  0.57043074  0.81854390  0.83023907    -0.14600
C1606       C  0.55530722  0.84776547  0.82120952    -0.07900
C1607       C  0.57622687  0.89804308  0.90743050     0.05600
C1608       C  0.54670164  0.90742825  0.92263614    -0.09000
C1609       C  0.54538837  0.92811201  0.95349481     0.00600
C1610       C  0.57365524  0.94651345  0.96546057     0.00500
C1611       C  0.60330163  0.93454147  0.95080361    -0.12600
C1612       C  0.60505636  0.91074675  0.92294715     0.00900
C1613       C  0.51600445  0.92300176  0.97399436     0.40200
C1614       C  0.63677660  0.90020345  0.91057210     0.36800
C1615       C  0.54244678  0.90403697  0.83435368     0.36600
C1616       C  0.60208689  0.78563736  0.87591038     0.37300
N1617       N  0.49358211  0.91178290  0.48965302    -0.43500
N1618       N  0.66225593  0.89153433  0.90107433    -0.43900
N1619       N  0.61341187  0.76146288  0.88522908    -0.41300
N1620       N  0.02658432  0.92552972  0.82567596    -0.42700
H1621       H  0.54229505  0.85015199  0.79476872     0.13500
H1622       H  0.60267344  0.83949472  0.91530551     0.09900
H1623       H  0.52466483  0.89525521  0.91300745     0.11000
H1624       H  0.62587908  0.94440142  0.96052915     0.16800
C1625       C  0.54462246  0.91111751  0.57685630    -0.01400
C1626       C  0.57281563  0.89643056  0.59178008     0.07200
C1627       C  0.60249237  0.90328944  0.57520023    -0.07300
C1628       C  0.60469889  0.92429242  0.54480047     0.04700
C1629       C  0.57747760  0.94452021  0.53364943    -0.14600
C1630       C  0.54732476  0.93382006  0.54808776    -0.07900
C1631       C  0.57199949  0.87126041  0.62151566     0.05600
C1632       C  0.55219546  0.84414562  0.61605603    -0.09000
C1633       C  0.55252970  0.81880576  0.64165570     0.00600
C1634       C  0.57320172  0.82003509  0.67360291     0.00500
C1635       C  0.59330530  0.84690376  0.67894973    -0.12600
C1636       C  0.59281600  0.87238206  0.65346034     0.00900
C1637       C  0.53278472  0.79099685  0.63327935     0.40200
C1638       C  0.61379394  0.89947518  0.66100799     0.36800
C1639       C  0.51288013  0.90561134  0.59265312     0.36600
C1640       C  0.63263099  0.91651974  0.52274212     0.37300
N1641       N  0.51710732  0.76864768  0.62638792    -0.43500
N1642       N  0.63082049  0.92100291  0.66717636    -0.43900
N1643       N  0.65487650  0.90601845  0.50714818    -0.41300
N1644       N  0.48746115  0.90143743  0.60547694    -0.42700
H1645       H  0.52528004  0.94513310  0.53890088     0.13500
H1646       H  0.62378025  0.88935190  0.58376761     0.09900
H1647       H  0.53704918  0.84230114  0.59105533     0.11000
H1648       H  0.60914536  0.84821898  0.70344604     0.16800
C1649       C  0.54479183  0.57895907  0.91151231    -0.01400
C1650       C  0.57225804  0.59585398  0.89956021     0.07200
C1651       C  0.60101440  0.59262330  0.92023212    -0.07300
C1652       C  0.60248026  0.57428565  0.95286389     0.04700
C1653       C  0.57685346  0.55187895  0.96231762    -0.14600
C1654       C  0.54718245  0.55868367  0.94270788    -0.07900
C1655       C  0.57049900  0.62215051  0.87129812     0.05600
C1656       C  0.54827072  0.64752873  0.87648227    -0.09000
C1657       C  0.54827030  0.67445673  0.85322340     0.00600
C1658       C  0.57184784  0.67716797  0.82495944     0.00500
C1659       C  0.59421528  0.65191973  0.81985566    -0.12600
C1660       C  0.59334650  0.62440540  0.84220569     0.00900
C1661       C  0.52442393  0.69938182  0.85982596     0.40200
C1662       C  0.61545214  0.59832063  0.83403134     0.36800
C1663       C  0.51334306  0.58314517  0.89337691     0.36600
C1664       C  0.62708003  0.58661905  0.97833199     0.37300
N1665       N  0.50515033  0.71922863  0.86503015    -0.43500
N1666       N  0.63286083  0.57722700  0.82721020    -0.43900
N1667       N  0.64264923  0.60058703  0.49545070    -0.41300
N1668       N  0.48819468  0.58665565  0.87877446    -0.42700
H1669       H  0.52430271  0.55104629  0.95386960     0.13500
H1670       H  0.62128404  0.60828953  0.91365578     0.09900
H1671       H  0.53126460  0.64670083  0.89939617     0.11000
H1672       H  0.61188734  0.65329324  0.79763816     0.16800
C1673       C  0.60942903  0.58496928  0.58134130    -0.01400
C1674       C  0.58261980  0.60464820  0.58976321     0.07200
C1675       C  0.55593524  0.60383651  0.56549242    -0.07300
C1676       C  0.55408272  0.58235683  0.53544678     0.04700
C1677       C  0.57815875  0.55700558  0.53050718    -0.14600
C1678       C  0.60746592  0.56344169  0.55099976    -0.07900
C1679       C  0.58261413  0.62928588  0.62029273     0.05600
C1680       C  0.60772937  0.65210825  0.62243960    -0.09000
C1681       C  0.60659587  0.67754863  0.64816916     0.00600
C1682       C  0.57953126  0.68091541  0.67214586     0.00500
C1683       C  0.55441319  0.65817795  0.66989581    -0.12600
C1684       C  0.55571490  0.63265221  0.64444806     0.00900
C1685       C  0.63293044  0.70050182  0.64811110     0.40200
C1686       C  0.52838404  0.61092820  0.64270149     0.36800
C1687       C  0.63944997  0.58647013  0.60295069     0.36600
C1688       C  0.52941562  0.59247366  0.50881079     0.37300
N1689       N  0.65404585  0.71887941  0.64814809    -0.43500
N1690       N  0.50610200  0.59405133  0.64028737    -0.43900
N1691       N  0.50891841  0.60286024  0.48973778    -0.41300
N1692       N  0.66348693  0.58748318  0.62032776    -0.42700
H1693       H  0.63010079  0.55293245  0.54260124     0.13500
H1694       H  0.53699723  0.62195737  0.56874312     0.09900
H1695       H  0.62779235  0.65078012  0.60303929     0.11000
H1696       H  0.53359559  0.66026207  0.68818346     0.16800
C1697       C  0.00412963  0.49483914  0.90840021    -0.01400
C1698       C  0.97095711  0.49297088  0.91678709     0.07200
C1699       C  0.96070701  0.98753275  0.95383299    -0.07300
C1700       C  0.98445139  0.98647639  0.98262761     0.04700
C1701       C  0.02006113  0.49303664  0.97533839    -0.14600
C1702       C  0.02755644  0.49344525  0.93724699    -0.07900
C1703       C  0.94527239  0.49610601  0.88711716     0.05600
C1704       C  0.94388746  0.97458193  0.85691648    -0.09000
C1705       C  0.92177565  0.97777705  0.82702716     0.00600
C1706       C  0.89911502  0.50228131  0.82777701     0.00500
C1707       C  0.90043888  0.52512987  0.85678849    -0.12600
C1708       C  0.92314778  0.52214399  0.88637653     0.00900
C1709       C  0.92491463  0.95597655  0.79576187     0.40200
C1710       C  0.92377832  0.54633602  0.91537210     0.36800
C1711       C  0.01442689  0.50160066  0.87084069     0.36600
C1712       C  0.97201312  0.97465453  0.01754857     0.37300
N1713       N  0.92750390  0.93857445  0.77068021    -0.43500
N1714       N  0.92448739  0.56561292  0.93873692    -0.43900
N1715       N  0.96291543  0.96292831  0.54758037    -0.41300
N1716       N  0.02233317  0.50730328  0.84070804    -0.42700
H1717       H  0.55362698  0.50006808  0.93051346     0.13500
H1718       H  0.93520523  0.98329809  0.96008927     0.09900
H1719       H  0.96203365  0.95555660  0.85633507     0.11000
H1720       H  0.88332368  0.54504099  0.85674182     0.16800
C1721       C  0.95556355  0.52406661  0.66309627    -0.01400
C1722       C  0.95187069  0.51780416  0.62442116     0.07200
C1723       C  0.92133911  0.01095409  0.61086729    -0.07300
C1724       C  0.89429123  0.00593468  0.63375414     0.04700
C1725       C  0.89882956  0.50963810  0.67274891    -0.14600
C1726       C  0.92883105  0.52092280  0.68654152    -0.07900
C1727       C  0.98018654  0.51866833  0.59886029     0.05600
C1728       C  0.00698027  0.99937684  0.60869223    -0.09000
C1729       C  0.03285678  0.99507311  0.58384333     0.00600
C1730       C  0.03066858  0.50806752  0.54408217     0.00500
C1731       C  0.00479577  0.53092076  0.53966216    -0.12600
C1732       C  0.98038243  0.53652696  0.56601984     0.00900
C1733       C  0.55910708  0.97984389  0.60219732     0.40200
C1734       C  0.95451446  0.55902884  0.55732595     0.36800
C1735       C  0.98670981  0.53238118  0.67988044     0.36600
C1736       C  0.86313877  0.99797257  0.61678070     0.37300
N1737       N  0.57851717  0.96707806  0.62070930    -0.43500
N1738       N  0.93387407  0.57714470  0.55029844    -0.43900
N1739       N  0.83816900  0.99159270  0.60315708    -0.41300
N1740       N  0.01176447  0.53830732  0.69358883    -0.42700
H1741       H  0.93157961  0.52651796  0.71605101     0.13500
H1742       H  0.91858672  0.00779351  0.58092314     0.09900
H1743       H  0.00681619  0.98596587  0.63461505     0.11000
H1744       H  0.00050903  0.54141130  0.51268227     0.16800
C1745       C  0.68113225  0.52940870  0.94035287    -0.01400
C1746       C  0.68052356  0.51383236  0.90589988     0.07200
C1747       C  0.65250821  0.00044009  0.89681121    -0.07300
C1748       C  0.62561622  0.99697961  0.92043555     0.04700
C1749       C  0.62746534  0.50520059  0.95746540    -0.14600
C1750       C  0.65507820  0.52544757  0.96471208    -0.07900
C1751       C  0.70885682  0.51307947  0.88067361     0.05600
C1752       C  0.72434768  0.98426308  0.87624289    -0.09000
C1753       C  0.74944006  0.98105756  0.85021148     0.00600
C1754       C  0.75941688  0.50828308  0.82801369     0.00500
C1755       C  0.74380442  0.53783390  0.83517037    -0.12600
C1756       C  0.71903135  0.54046921  0.86144030     0.00900
C1757       C  0.76468636  0.94999516  0.84608866     0.40200
C1758       C  0.70439014  0.57149574  0.86805178     0.36800
C1759       C  0.70942706  0.54732074  0.95282762     0.36600
C1760       C  0.59856414  0.98400397  0.89958118     0.37300
N1761       N  0.77701614  0.92510319  0.84319152    -0.43500
N1762       N  0.69308361  0.59647874  0.87381702    -0.43900
N1763       N  0.57945147  0.97256474  0.87950837    -0.41300
N1764       N  0.73209285  0.56175984  0.96262137    -0.42700
H1765       H  0.65861788  0.53591347  0.99197369     0.13500
H1766       H  0.65146210  0.99109163  0.86839325     0.09900
H1767       H  0.71606054  0.96331356  0.89113979     0.11000
H1768       H  0.75073205  0.55912114  0.82002239     0.16800
C1769       C  0.72946321  0.52120360  0.61301878    -0.01400
C1770       C  0.70276429  0.50055296  0.61956978     0.07200
C1771       C  0.70190231  0.98137192  0.65127322    -0.07300
C1772       C  0.72604038  0.98518363  0.67901112     0.04700
C1773       C  0.75355854  0.50772969  0.67358779    -0.14600
C1774       C  0.75451124  0.52466332  0.63995961    -0.07900
C1775       C  0.67690650  0.49474368  0.59039112     0.05600
C1776       C  0.68687730  0.98116165  0.55263261    -0.09000
C1777       C  0.66432441  0.98045218  0.52275918     0.00600
C1778       C  0.63054630  0.49371617  0.52895620     0.00500
C1779       C  0.62141225  0.49956845  0.56596821    -0.12600
C1780       C  0.64372594  0.50125499  0.59616400     0.00900
C1781       C  0.67792370  0.96776555  0.48858795     0.40200
C1782       C  0.63237107  0.51247982  0.63196700     0.36800
C1783       C  0.73165716  0.53911286  0.57879843     0.36600
C1784       C  0.72178095  0.96930183  0.71434882     0.37300
N1785       N  0.68992788  0.95738615  0.46202161    -0.43500
N1786       N  0.62316817  0.52134178  0.66065444    -0.43900
N1787       N  0.71832255  0.95681487  0.74278078    -0.41300
N1788       N  0.73330233  0.55333893  0.55126963    -0.42700
H1789       H  0.77531646  0.53979727  0.63422876     0.13500
H1790       H  0.68130552  0.96580327  0.65629166     0.09900
H1791       H  0.71200050  0.97375512  0.54817471     0.11000
H1792       H  0.59747312  0.50840715  0.57005260     0.16800
loop_ 
_geom_bond_atom_site_label_1 
_geom_bond_atom_site_label_2 
_geom_bond_distance 
_geom_bond_site_symmetry_2 
_ccdc_geom_bond_type 
C1          C689   1.696       .  S
C1          C256   1.685       .  S
C1          C853   1.637       .  S
C1          C658   1.611   1_556  S
O2          Ni10   1.930       .  S
O2          C460   1.285       .  A
O3          Ni10   1.933       .  S
O3          C461   1.285       .  A
O4          Ni10   1.896       .  S
O4          C462   1.276       .  A
O5          Ni10   1.897       .  S
O5          C463   1.276       .  A
O6          Ni11   1.942       .  S
O6           C15   1.287       .  A
O7          Ni11   1.940       .  S
O7           C14   1.287       .  A
O8          Ni11   1.902       .  S
O8           C13   1.275       .  A
O9          Ni11   1.893       .  S
O9           C12   1.276       .  A
Ni10       Ni459   2.386       .  S
Ni11       Ni458   2.387   1_545  S
C12         O450   1.286   1_545  A
C12         C186   1.487       .  S
C13         O451   1.286   1_545  A
C13         C157   1.474       .  S
C14         O452   1.277   1_545  A
C14         C138   1.485       .  S
C15         O453   1.277   1_545  A
C15         C205   1.486       .  S
C16          C17   1.697   1_565  S
C16         C480   1.681       .  S
C16        C1029   1.617       .  S
C16        C1282   1.636   1_565  S
C17         C673   1.691   1_545  S
C17          C85   1.631       .  S
C17         C333   1.625       .  S
O18         Ni26   1.943       .  S
O18          C28   1.287       .  A
O19         Ni26   1.942       .  S
O19          C29   1.287       .  A
O20         Ni26   1.903       .  S
O20          C30   1.278       .  A
O21         Ni26   1.908       .  S
O21          C31   1.278       .  A
O22         Ni27   1.931       .  S
O22          C31   1.285       .  A
O23         Ni27   1.929       .  S
O23          C30   1.285       .  A
O24         Ni27   1.917       .  S
O24          C29   1.280       .  A
O25         Ni27   1.913       .  S
O25          C28   1.279       .  A
Ni26        Ni27   2.384       .  S
C28          C66   1.492       .  S
C29          C90   1.496       .  S
C30         C114   1.484       .  S
C31          C37   1.480       .  S
C32         C225   1.681       .  S
C32         C464   1.680       .  S
C32          C42   1.596       .  S
C32         C285   1.607       .  S
C33          C34   1.414       .  A
C33          C38   1.402       .  A
C33          C47   1.445       .  S
C34          C39   1.489       .  S
C34          C35   1.403       .  A
C35          C36   1.400       .  A
C35          H54   1.085       .  S
C36          C37   1.413       .  A
C36          C48   1.444       .  S
C37          C38   1.404       .  A
C38          H53   1.085       .  S
C39          C40   1.388       .  A
C39          C44   1.400       .  A
C40          C41   1.401       .  A
C40          H55   1.087       .  S
C41          C42   1.448       .  A
C41          C45   1.435       .  S
C42          C43   1.417       .  A
C43          C44   1.404       .  A
C43          H56   1.065       .  S
C44          C46   1.444       .  S
C45         N273   1.158   1_455  T
C46          N50   1.157       .  T
C47         N948   1.157       .  T
C48          N51   1.157       .  T
N49         C269   1.158   1_655  T
N52         C943   1.157       .  T
C57          C58   1.406       .  A
C57          C62   1.411       .  A
C57          C71   1.443       .  S
C58          C63   1.504       .  S
C58          C59   1.392       .  A
C59          C60   1.406       .  A
C59          H78   1.087       .  S
C60          C61   1.446       .  A
C60          C72   1.434       .  S
C61         C256   1.605   1_554  S
C61          C62   1.419       .  A
C62          H77   1.068       .  S
C63          C64   1.405       .  A
C63          C68   1.418       .  A
C64          C65   1.404       .  A
C64          H79   1.084       .  S
C65          C66   1.416       .  A
C65          C69   1.444       .  S
C66          C67   1.404       .  A
C67          C68   1.408       .  A
C67          H80   1.085       .  S
C68          C70   1.444       .  S
C69          N73   1.157       .  T
C70          N74   1.157       .  T
C71          N76   1.157   1_455  T
C72          N75   1.158       .  T
C81          C82   1.404       .  A
C81          C86   1.413       .  A
C81          C95   1.443       .  S
C82          C87   1.501       .  S
C82          C83   1.387       .  A
C83          C84   1.401       .  A
C83         H102   1.087       .  S
C84          C85   1.453       .  A
C84          C96   1.443       .  S
C85          C86   1.423       .  A
C86         H101   1.074       .  S
C87          C88   1.405       .  A
C87          C92   1.414       .  A
C88          C89   1.406       .  A
C88         H103   1.085       .  S
C89          C90   1.417       .  A
C89          C93   1.444       .  S
C90          C91   1.407       .  A
C91          C92   1.408       .  A
C91         H104   1.085       .  S
C92          C94   1.444       .  S
C93          N97   1.157       .  T
C94          N98   1.157       .  T
C95         N100   1.157   1_455  T
C96         N323   1.159       .  T
N99         C320   1.159       .  T
C105        C106   1.405       .  A
C105        C110   1.408       .  A
C105        C119   1.444       .  S
C106        C111   1.495       .  S
C106        C107   1.385       .  A
C107        C108   1.396       .  A
C107        H126   1.087       .  S
C108        C109   1.452       .  A
C108        C120   1.443       .  S
C109        C241   1.624   1_554  S
C109        C110   1.422       .  A
C110        H125   1.071       .  S
C111        C112   1.404       .  A
C111        C116   1.417       .  A
C112        C113   1.400       .  A
C112        H127   1.084       .  S
C113        C114   1.416       .  A
C113        C117   1.445       .  S
C114        C115   1.402       .  A
C115        C116   1.401       .  A
C115        H128   1.085       .  S
C116        C118   1.443       .  S
C117        N121   1.157       .  T
C118        N122   1.157       .  T
C119        N124   1.157       .  T
C120        N123   1.159   1_554  T
C129        C130   1.400       .  A
C129        C134   1.403       .  A
C129        C143   1.445   1_565  S
C130        C135   1.495       .  S
C130        C579   1.394       .  A
C131        C132   1.409       .  A
C131        C578   1.394       .  A
C131        H150   1.086       .  S
C132        C581   1.455       .  A
C132        C144   1.446       .  S
C133        C912   1.616       .  S
C133        C134   1.399       .  A
C133        C580   1.455       .  A
C134       H1045   1.046       .  S
C135        C140   1.414   1_565  A
C135        C584   1.403       .  A
C136        C137   1.398       .  A
C136        C583   1.401       .  A
C136        H151   1.085       .  S
C137        C586   1.417       .  A
C137        C141   1.445       .  S
C138        C139   1.404       .  A
C138        C585   1.416   1_545  A
C139        C140   1.405       .  A
C139        H152   1.085       .  S
C140        C142   1.444       .  S
C141        N145   1.157       .  T
C142        N146   1.157       .  T
C143        N148   1.157       .  T
C144        N371   1.158       .  T
N147        C368   1.158       .  T
H149       C1030   1.045       .  S
C153        C154   1.420       .  A
C153        C158   1.401       .  A
C153        C167   1.445       .  S
C154        C159   1.502       .  S
C154        C603   1.410       .  A
C155        C156   1.403       .  A
C155        C602   1.410       .  A
C155        H174   1.084       .  S
C156        C605   1.406       .  A
C156        C168   1.444       .  S
C157        C158   1.400       .  A
C157        C604   1.407       .  A
C158        H173   1.086       .  S
C159        C164   1.402       .  A
C159        C608   1.387   1_545  A
C160        C161   1.403       .  A
C160        C607   1.389       .  A
C160        H175   1.086       .  S
C161        C610   1.461       .  A
C161       C1061   1.439       .  S
C162       C1136   1.643       .  S
C162        C163   1.429       .  A
C162        C609   1.463   1_545  A
C163        C164   1.407       .  A
C163        H176   1.075       .  S
C164        C166   1.443       .  S
C165       C1057   1.441       .  S
C165        N169   1.158       .  T
C166        N170   1.157       .  T
C167        N172   1.158       .  T
C168        N171   1.157       .  T
C177        C178   1.391       .  A
C177        C182   1.399       .  A
C177        C191   1.444       .  S
C178        C183   1.477       .  S
C178        C627   1.381       .  A
C179        C180   1.401       .  A
C179        C626   1.380       .  A
C179        H198   1.089       .  S
C180        C629   1.458       .  A
C180        C192   1.432       .  S
C181        C673   1.631   1_545  S
C181        C182   1.433       .  A
C181        C628   1.458   1_545  A
C182        H197   1.075       .  S
C183        C188   1.403       .  A
C183        C632   1.403   1_545  A
C184        C185   1.400       .  A
C184        C631   1.404       .  A
C184        H199   1.085       .  S
C185        C634   1.415       .  A
C185        C189   1.444       .  S
C186        C187   1.413       .  A
C186        C633   1.414   1_545  A
C187        C188   1.396       .  A
C187        H200   1.084       .  S
C188        C190   1.444       .  S
C189        N193   1.157       .  T
C190        N194   1.157       .  T
C191        N196   1.157       .  T
C192        N195   1.157       .  T
C201        C202   1.413   1_545  A
C201        C206   1.405       .  A
C201        C215   1.444       .  S
C202        C207   1.487       .  S
C202        C651   1.399       .  A
C203        C204   1.399       .  A
C203        C650   1.399       .  A
C203        H222   1.084       .  S
C204        C653   1.418       .  A
C204        C216   1.445       .  S
C205        C206   1.403       .  A
C205        C652   1.419   1_545  A
C206        H221   1.084       .  S
C207        C212   1.398       .  A
C207        C656   1.391       .  A
C208        C209   1.405       .  A
C208        C655   1.392       .  A
C208        H223   1.086       .  S
C209        C658   1.453       .  A
C209        C213   1.448   1_554  S
C210        C449   1.611   1_554  S
C210        C211   1.400       .  A
C210        C657   1.454       .  A
C211        C212   1.405       .  A
C211        H224   1.055   1_565  S
C212        C214   1.445   1_565  S
C213        N217   1.158       .  T
C214        N218   1.157       .  T
C215        N220   1.157       .  T
C216        N219   1.157       .  T
C225        C465   1.693       .  S
C225        C629   1.634       .  S
C225        C882   1.616       .  S
O226       Ni234   1.925       .  S
O226        C684   1.284       .  A
O227       Ni234   1.926       .  S
O227        C685   1.282       .  A
O228       Ni234   1.906       .  S
O228        C686   1.278       .  A
O229       Ni234   1.903       .  S
O229        C687   1.278       .  A
O230       Ni235   1.937       .  S
O230        C239   1.285       .  A
O231       Ni235   1.937       .  S
O231        C238   1.286       .  A
O232       Ni235   1.902       .  S
O232        C237   1.276       .  A
O233       Ni235   1.902       .  S
O233        C236   1.279       .  A
Ni234      Ni683   2.387       .  S
Ni235      Ni682   2.387   1_545  S
C236        O674   1.285   1_545  A
C236        C410   1.493       .  S
C237        O675   1.283   1_545  A
C237        C381   1.468       .  S
C238        O676   1.278   1_545  A
C238        C362   1.487       .  S
C239        O677   1.278   1_545  A
C239        C429   1.480       .  S
C240        C241   1.696   1_564  S
C240        C704   1.680   1_554  S
C240       C1253   1.616   1_554  S
C240       C1058   1.641   1_565  S
C241        C449   1.693   1_545  S
C241        C309   1.625       .  S
O242       Ni250   1.937       .  S
O242        C252   1.286       .  A
O243       Ni250   1.932       .  S
O243        C253   1.285       .  A
O244       Ni250   1.911       .  S
O244        C254   1.279       .  A
O245       Ni250   1.912       .  S
O245        C255   1.279       .  A
O246       Ni251   1.930       .  S
O246        C255   1.283       .  A
O247       Ni251   1.925       .  S
O247        C254   1.284       .  A
O248       Ni251   1.920       .  S
O248        C253   1.281       .  A
O249       Ni251   1.920       .  S
O249        C252   1.281       .  A
Ni250      Ni251   2.385       .  S
C252        C290   1.494       .  S
C253        C314   1.491       .  S
C254        C338   1.485       .  S
C255        C261   1.478       .  S
C256        C688   1.681   1_556  S
C256        C266   1.604       .  S
C257        C258   1.414       .  A
C257        C262   1.404       .  A
C257        C271   1.444       .  S
C258        C263   1.489       .  S
C258        C259   1.404       .  A
C259        C260   1.401       .  A
C259        H278   1.085       .  S
C260        C261   1.410       .  A
C260        C272   1.444       .  S
C261        C262   1.403       .  A
C262        H277   1.085       .  S
C263        C264   1.384       .  A
C263        C268   1.402       .  A
C264        C265   1.401       .  A
C264        H279   1.088       .  S
C265        C266   1.452       .  A
C265        C269   1.435       .  S
C266        C267   1.417       .  A
C267        C268   1.409       .  A
C267        H280   1.069       .  S
C268        C270   1.443       .  S
C270        N274   1.157       .  T
C271       N1172   1.157       .  T
C272        N275   1.157       .  T
N276       C1167   1.157       .  T
C281        C282   1.406       .  A
C281        C286   1.410       .  A
C281        C295   1.444       .  S
C282        C287   1.507       .  S
C282        C283   1.393       .  A
C283        C284   1.409       .  A
C283        H302   1.087       .  S
C284        C285   1.447       .  A
C284        C296   1.433       .  S
C285        C286   1.419       .  A
C286        H301   1.064       .  S
C287        C288   1.406       .  A
C287        C292   1.418       .  A
C288        C289   1.405       .  A
C288        H303   1.084       .  S
C289        C290   1.416       .  A
C289        C293   1.444       .  S
C290        C291   1.405       .  A
C291        C292   1.407       .  A
C291        H304   1.085       .  S
C292        C294   1.444       .  S
C293        N297   1.157       .  T
C294        N298   1.157       .  T
C295        N300   1.157   1_455  T
C296        N299   1.158       .  T
C305        C306   1.404       .  A
C305        C310   1.408       .  A
C305        C319   1.444       .  S
C306        C311   1.500       .  S
C306        C307   1.389       .  A
C307        C308   1.402       .  A
C307        H326   1.087       .  S
C308        C309   1.453       .  A
C308        C320   1.443       .  S
C309        C310   1.421       .  A
C310        H325   1.073       .  S
C311        C312   1.406       .  A
C311        C316   1.414       .  A
C312        C313   1.403       .  A
C312        H327   1.084       .  S
C313        C314   1.415       .  A
C313        C317   1.444       .  S
C314        C315   1.407       .  A
C315        C316   1.406       .  A
C315        H328   1.085       .  S
C316        C318   1.444       .  S
C317        N321   1.157   1_455  T
C318        N322   1.157       .  T
C319        N324   1.157   1_455  T
C329        C330   1.402       .  A
C329        C334   1.408       .  A
C329        C343   1.444       .  S
C330        C335   1.495       .  S
C330        C331   1.387       .  A
C331        C332   1.397       .  A
C331        H350   1.087       .  S
C332        C333   1.451       .  A
C332        C344   1.443       .  S
C333        C334   1.425       .  A
C334        H349   1.069       .  S
C335        C336   1.406       .  A
C335        C340   1.414       .  A
C336        C337   1.405       .  A
C336        H351   1.084       .  S
C337        C338   1.416       .  A
C337        C341   1.444       .  S
C338        C339   1.402       .  A
C339        C340   1.398       .  A
C339        H352   1.085       .  S
C340        C342   1.442       .  S
C341        N345   1.157       .  T
C342        N346   1.156       .  T
C343        N348   1.157       .  T
C344        N347   1.158       .  T
C353        C354   1.399       .  A
C353        C358   1.403       .  A
C353        C367   1.445   1_565  S
C354        C359   1.495       .  S
C354        C803   1.395       .  A
C355        C802   1.394       .  A
C355        C356   1.408       .  A
C355        H374   1.086       .  S
C356        C805   1.453       .  A
C356        C368   1.447   1_556  S
C357       C1136   1.618   1_566  S
C357        C804   1.454       .  A
C357        C358   1.403       .  A
C358       H1269   1.049   1_565  S
C359        C808   1.404       .  A
C359        C364   1.413   1_565  A
C360        C807   1.401       .  A
C360        C361   1.401       .  A
C360        H375   1.085       .  S
C361        C810   1.419       .  A
C361        C365   1.445       .  S
C362        C809   1.416   1_545  A
C362        C363   1.405       .  A
C363        C364   1.406       .  A
C363        H376   1.084       .  S
C364        C366   1.444       .  S
C365        N369   1.157       .  T
C366        N370   1.157       .  T
C367        N372   1.157       .  T
H373       C1254   1.049       .  S
C377        C378   1.417       .  A
C377        C382   1.396       .  A
C377        C391   1.444       .  S
C378        C383   1.494       .  S
C378        C827   1.410       .  A
C379        C826   1.408       .  A
C379        C380   1.402       .  A
C379        H398   1.084       .  S
C380        C829   1.406       .  A
C380        C392   1.444       .  S
C381        C828   1.407       .  A
C381        C382   1.398       .  A
C382        H397   1.086       .  S
C383        C832   1.386   1_545  A
C383        C388   1.399       .  A
C384        C831   1.384       .  A
C384        C385   1.401       .  A
C384        H399   1.088       .  S
C385        C834   1.463       .  A
C385       C1285   1.440       .  S
C386        C912   1.636   1_545  S
C386        C833   1.462   1_545  A
C386        C387   1.429       .  A
C387        C388   1.404       .  A
C387        H400   1.076       .  S
C388        C390   1.444       .  S
C389       C1281   1.439       .  S
C389        N393   1.158       .  T
C390        N394   1.157       .  T
C391        N396   1.157       .  T
C392        N395   1.157       .  T
C401        C402   1.393       .  A
C401        C406   1.403       .  A
C401        C415   1.444       .  S
C402        C407   1.487       .  S
C402        C851   1.384       .  A
C403        C850   1.384       .  A
C403        C404   1.406       .  A
C403        H422   1.088       .  S
C404        C853   1.458       .  A
C404        C416   1.432       .  S
C405        C449   1.638   1_545  S
C405        C852   1.458   1_545  A
C405        C406   1.435       .  A
C406        H421   1.077       .  S
C407        C856   1.404   1_545  A
C407        C412   1.406       .  A
C408        C855   1.403       .  A
C408        C409   1.401       .  A
C408        H423   1.085       .  S
C409        C858   1.415       .  A
C409        C413   1.444       .  S
C410        C857   1.416   1_545  A
C410        C411   1.412       .  A
C411        C412   1.399       .  A
C411        H424   1.084       .  S
C412        C414   1.444       .  S
C413        N417   1.157       .  T
C414        N418   1.157       .  T
C415        N420   1.157       .  T
C416        N419   1.157       .  T
C425        C426   1.415   1_545  A
C425        C430   1.404       .  A
C425        C439   1.444       .  S
C426        C431   1.491       .  S
C426        C875   1.402       .  A
C427        C874   1.401       .  A
C427        C428   1.401       .  A
C427        H446   1.084       .  S
C428        C877   1.416       .  A
C428        C440   1.445       .  S
C429        C876   1.415   1_545  A
C429        C430   1.402       .  A
C430        H445   1.085       .  S
C431        C880   1.392       .  A
C431        C436   1.400       .  A
C432        C879   1.391       .  A
C432        C433   1.403       .  A
C432        H447   1.086       .  S
C433        C882   1.455       .  A
C433        C437   1.448       .  S
C434        C673   1.612       .  S
C434        C881   1.454       .  A
C434        C435   1.401       .  A
C435        C436   1.405       .  A
C435        H448   1.056   1_565  S
C436        C438   1.445   1_565  S
C437        N441   1.158       .  T
C438        N442   1.157       .  T
C439        N444   1.157       .  T
C440        N443   1.157       .  T
C449        C704   1.684       .  S
O450       Ni458   1.934       .  S
O451       Ni458   1.938       .  S
O452       Ni458   1.901       .  S
O453       Ni458   1.902       .  S
O454       Ni459   1.945       .  S
O454        C463   1.287       .  A
O455       Ni459   1.946       .  S
O455        C462   1.288       .  A
O456       Ni459   1.905       .  S
O456        C461   1.276       .  A
O457       Ni459   1.896       .  S
O457        C460   1.277       .  A
C460        C634   1.488       .  S
C461        C605   1.472       .  S
C462        C586   1.489       .  S
C463        C653   1.485       .  S
C464        C465   1.694       .  S
C464       C1477   1.617       .  S
C464       C1730   1.633       .  S
C465        C533   1.628       .  S
C465        C781   1.623       .  S
O466       Ni474   1.941       .  S
O466        C476   1.287       .  A
O467       Ni474   1.939       .  S
O467        C477   1.287       .  A
O468       Ni474   1.903       .  S
O468        C478   1.277       .  A
O469       Ni474   1.907       .  S
O469        C479   1.277       .  A
O470       Ni475   1.936       .  S
O470        C479   1.285       .  A
O471       Ni475   1.934       .  S
O471        C478   1.286       .  A
O472       Ni475   1.915       .  S
O472        C477   1.279       .  A
O473       Ni475   1.911       .  S
O473        C476   1.279       .  A
Ni474      Ni475   2.385       .  S
C476        C514   1.490       .  S
C477        C538   1.491       .  S
C478        C562   1.486       .  S
C479        C485   1.480       .  S
C480        C673   1.680       .  S
C480        C490   1.601       .  S
C480        C733   1.605       .  S
C481        C482   1.414       .  A
C481        C486   1.403       .  A
C481        C495   1.444       .  S
C482        C487   1.491       .  S
C482        C483   1.404       .  A
C483        C484   1.403       .  A
C483        H502   1.085       .  S
C484        C485   1.413       .  A
C484        C496   1.444       .  S
C485        C486   1.402       .  A
C486        H501   1.085       .  S
C487        C488   1.387       .  A
C487        C492   1.400       .  A
C488        C489   1.403       .  A
C488        H503   1.087       .  S
C489        C490   1.449       .  A
C489        C493   1.435       .  S
C490        C491   1.419       .  A
C491        C492   1.407       .  A
C491        H504   1.066       .  S
C492        C494   1.444       .  S
C493        N721   1.158   1_455  T
C494        N498   1.157       .  T
C495       N1396   1.157       .  T
C496        N499   1.157       .  T
N497        C717   1.158   1_655  T
N500       C1391   1.157       .  T
C505        C506   1.406       .  A
C505        C510   1.410       .  A
C505        C519   1.444       .  S
C506        C511   1.502       .  S
C506        C507   1.392       .  A
C507        C508   1.405       .  A
C507        H526   1.087       .  S
C508        C509   1.445       .  A
C508        C520   1.433       .  S
C509        C704   1.604   1_554  S
C509        C510   1.419       .  A
C510        H525   1.066       .  S
C511        C512   1.405       .  A
C511        C516   1.418       .  A
C512        C513   1.404       .  A
C512        H527   1.084       .  S
C513        C514   1.416       .  A
C513        C517   1.444       .  S
C514        C515   1.403       .  A
C515        C516   1.406       .  A
C515        H528   1.085       .  S
C516        C518   1.444       .  S
C517        N521   1.157       .  T
C518        N522   1.157       .  T
C519        N524   1.157   1_455  T
C520        N523   1.158       .  T
C529        C530   1.403       .  A
C529        C534   1.412       .  A
C529        C543   1.444       .  S
C530        C535   1.499       .  S
C530        C531   1.388       .  A
C531        C532   1.401       .  A
C531        H550   1.087       .  S
C532        C533   1.451       .  A
C532        C544   1.443       .  S
C533        C534   1.424       .  A
C534        H549   1.074       .  S
C535        C536   1.406       .  A
C535        C540   1.414       .  A
C536        C537   1.405       .  A
C536        H551   1.085       .  S
C537        C538   1.416       .  A
C537        C541   1.444       .  S
C538        C539   1.406       .  A
C539        C540   1.406       .  A
C539        H552   1.085       .  S
C540        C542   1.444       .  S
C541        N545   1.157       .  T
C542        N546   1.157       .  T
C543        N548   1.157   1_455  T
C544        N771   1.158       .  T
N547        C768   1.159       .  T
C553        C554   1.405       .  A
C553        C558   1.410       .  A
C553        C567   1.444       .  S
C554        C559   1.497       .  S
C554        C555   1.385       .  A
C555        C556   1.396       .  A
C555        H574   1.088       .  S
C556        C557   1.453       .  A
C556        C568   1.442       .  S
C557        C689   1.627   1_554  S
C557        C558   1.424       .  A
C558        H573   1.071       .  S
C559        C560   1.404       .  A
C559        C564   1.417       .  A
C560        C561   1.402       .  A
C560        H575   1.084       .  S
C561        C562   1.417       .  A
C561        C565   1.445       .  S
C562        C563   1.402       .  A
C563        C564   1.401       .  A
C563        H576   1.085       .  S
C564        C566   1.443       .  S
C565        N569   1.157       .  T
C566        N570   1.156       .  T
C567        N572   1.157       .  T
C568        N571   1.159   1_554  T
C577        C578   1.399       .  A
C577        C582   1.401       .  A
C577        C591   1.445       .  S
C578        C583   1.493       .  S
C579        C580   1.408       .  A
C579        H598   1.086       .  S
C580        C592   1.447       .  S
C581       C1360   1.620       .  S
C581        C582   1.397       .  A
C582       H1493   1.047       .  S
C583        C588   1.414       .  A
C584        C585   1.400       .  A
C584        H599   1.085       .  S
C585        C589   1.445       .  S
C586        C587   1.406       .  A
C587        C588   1.408       .  A
C587        H600   1.084       .  S
C588        C590   1.444       .  S
C589        N593   1.157       .  T
C590        N594   1.157       .  T
C591        N596   1.158       .  T
C592        N819   1.158       .  T
N595        C816   1.158       .  T
H597       C1478   1.042       .  S
C601        C602   1.422       .  A
C601        C606   1.401       .  A
C601        C615   1.445       .  S
C602        C607   1.504       .  S
C603        C604   1.405       .  A
C603        H622   1.084       .  S
C604        C616   1.443       .  S
C605        C606   1.398       .  A
C606        H621   1.086       .  S
C607        C612   1.403       .  A
C608        C609   1.403       .  A
C608        H623   1.086       .  S
C609       C1509   1.440       .  S
C610       C1584   1.640       .  S
C610        C611   1.428       .  A
C611        C612   1.406       .  A
C611        H624   1.075       .  S
C612        C614   1.444       .  S
C613       C1505   1.439       .  S
C613        N617   1.157       .  T
C614        N618   1.157       .  T
C615        N620   1.158       .  T
C616        N619   1.157       .  T
C625        C626   1.392       .  A
C625        C630   1.401       .  A
C625        C639   1.444       .  S
C626        C631   1.478       .  S
C627        C628   1.402   1_545  A
C627        H646   1.089   1_545  S
C628        C640   1.432       .  S
C629        C630   1.435       .  A
C630        H645   1.077       .  S
C631        C636   1.403       .  A
C632        C633   1.400       .  A
C632        H647   1.085       .  S
C633        C637   1.443       .  S
C634        C635   1.412       .  A
C635        C636   1.396       .  A
C635        H648   1.084       .  S
C636        C638   1.444       .  S
C637        N641   1.157       .  T
C638        N642   1.157       .  T
C639        N644   1.157       .  T
C640        N643   1.157       .  T
C649        C650   1.414       .  A
C649        C654   1.407       .  A
C649        C663   1.443       .  S
C650        C655   1.489       .  S
C651        C652   1.400       .  A
C651        H670   1.084       .  S
C652        C664   1.445       .  S
C653        C654   1.403       .  A
C654        H669   1.084       .  S
C655        C660   1.399       .  A
C656        C657   1.403       .  A
C656        H671   1.086       .  S
C657        C661   1.448   1_554  S
C658        C659   1.399       .  A
C659        C660   1.405       .  A
C659        H672   1.055       .  S
C660        C662   1.445       .  S
C661        N665   1.158       .  T
C662        N666   1.157       .  T
C663        N668   1.157       .  T
C664        N667   1.157       .  T
O674       Ni682   1.930       .  S
O675       Ni682   1.931       .  S
O676       Ni682   1.906       .  S
O677       Ni682   1.904       .  S
O678       Ni683   1.941       .  S
O678        C687   1.286       .  A
O679       Ni683   1.938       .  S
O679        C686   1.286       .  A
O680       Ni683   1.901       .  S
O680        C685   1.277       .  A
O681       Ni683   1.903       .  S
O681        C684   1.278       .  A
C684        C858   1.488       .  S
C685        C829   1.466       .  S
C686        C810   1.489       .  S
C687        C877   1.484       .  S
C688        C689   1.696   1_554  S
C688       C1701   1.616   1_554  S
C688       C1506   1.643       .  S
C689        C757   1.627       .  S
O690       Ni698   1.934       .  S
O690        C700   1.285       .  A
O691       Ni698   1.932       .  S
O691        C701   1.285       .  A
O692       Ni698   1.907       .  S
O692        C702   1.278       .  A
O693       Ni698   1.911       .  S
O693        C703   1.279       .  A
O694       Ni699   1.931       .  S
O694        C703   1.284       .  A
O695       Ni699   1.926       .  S
O695        C702   1.284       .  A
O696       Ni699   1.916       .  S
O696        C701   1.280       .  A
O697       Ni699   1.914       .  S
O697        C700   1.280       .  A
Ni698      Ni699   2.385       .  S
C700        C738   1.488       .  S
C701        C762   1.490       .  S
C702        C786   1.484       .  S
C703        C709   1.480       .  S
C704        C714   1.601       .  S
C705        C706   1.414       .  A
C705        C710   1.404       .  A
C705        C719   1.445       .  S
C706        C711   1.491       .  S
C706        C707   1.404       .  A
C707        C708   1.401       .  A
C707        H726   1.085       .  S
C708        C709   1.411       .  A
C708        C720   1.444       .  S
C709        C710   1.404       .  A
C710        H725   1.085       .  S
C711        C712   1.387       .  A
C711        C716   1.401       .  A
C712        C713   1.401       .  A
C712        H727   1.087       .  S
C713        C714   1.450       .  A
C713        C717   1.435       .  S
C714        C715   1.416       .  A
C715        C716   1.407       .  A
C715        H728   1.066       .  S
C716        C718   1.444       .  S
C718        N722   1.157       .  T
C719       N1620   1.157       .  T
C720        N723   1.157       .  T
N724       C1615   1.157       .  T
C729        C730   1.406       .  A
C729        C734   1.410       .  A
C729        C743   1.444       .  S
C730        C735   1.503       .  S
C730        C731   1.391       .  A
C731        C732   1.406       .  A
C731        H750   1.087       .  S
C732        C733   1.447       .  A
C732        C744   1.433       .  S
C733        C734   1.419       .  A
C734        H749   1.066       .  S
C735        C736   1.405       .  A
C735        C740   1.419       .  A
C736        C737   1.403       .  A
C736        H751   1.084       .  S
C737        C738   1.414       .  A
C737        C741   1.444       .  S
C738        C739   1.403       .  A
C739        C740   1.405       .  A
C739        H752   1.085       .  S
C740        C742   1.444       .  S
C741        N745   1.157       .  T
C742        N746   1.157       .  T
C743        N748   1.157   1_455  T
C744        N747   1.158       .  T
C753        C754   1.403       .  A
C753        C758   1.409       .  A
C753        C767   1.444       .  S
C754        C759   1.500       .  S
C754        C755   1.388       .  A
C755        C756   1.401       .  A
C755        H774   1.087       .  S
C756        C757   1.452       .  A
C756        C768   1.443       .  S
C757        C758   1.422       .  A
C758        H773   1.074       .  S
C759        C760   1.406       .  A
C759        C764   1.414       .  A
C760        C761   1.402       .  A
C760        H775   1.084       .  S
C761        C762   1.414       .  A
C761        C765   1.444       .  S
C762        C763   1.407       .  A
C763        C764   1.406       .  A
C763        H776   1.085       .  S
C764        C766   1.444       .  S
C765        N769   1.157       .  T
C766        N770   1.157       .  T
C767        N772   1.157   1_455  T
C777        C778   1.402       .  A
C777        C782   1.406       .  A
C777        C791   1.444       .  S
C778        C783   1.494       .  S
C778        C779   1.386       .  A
C779        C780   1.398       .  A
C779        H798   1.087       .  S
C780        C781   1.453       .  A
C780        C792   1.443       .  S
C781        C782   1.422       .  A
C782        H797   1.070       .  S
C783        C784   1.404       .  A
C783        C788   1.415       .  A
C784        C785   1.402       .  A
C784        H799   1.084       .  S
C785        C786   1.416       .  A
C785        C789   1.444       .  S
C786        C787   1.403       .  A
C787        C788   1.399       .  A
C787        H800   1.085       .  S
C788        C790   1.442       .  S
C789        N793   1.157       .  T
C790        N794   1.156       .  T
C791        N796   1.157       .  T
C792        N795   1.159       .  T
C801        C802   1.397       .  A
C801        C806   1.402       .  A
C801        C815   1.445       .  S
C802        C807   1.490       .  S
C803        C804   1.409       .  A
C803        H822   1.086       .  S
C804        C816   1.447   1_556  S
C805       C1584   1.615   1_556  S
C805        C806   1.404       .  A
C806       H1717   1.050       .  S
C807        C812   1.411       .  A
C808        C809   1.401       .  A
C808        H823   1.085       .  S
C809        C813   1.445       .  S
C810        C811   1.406       .  A
C811        C812   1.405       .  A
C811        H824   1.084       .  S
C812        C814   1.444       .  S
C813        N817   1.157       .  T
C814        N818   1.157       .  T
C815        N820   1.157       .  T
H821       C1702   1.048       .  S
C825        C826   1.412       .  A
C825        C830   1.395       .  A
C825        C839   1.444       .  S
C826        C831   1.485       .  S
C827        C828   1.404       .  A
C827        H846   1.084       .  S
C828        C840   1.444   1_545  S
C829        C830   1.400       .  A
C830        H845   1.085       .  S
C831        C836   1.394       .  A
C832        C833   1.402       .  A
C832        H847   1.087       .  S
C833       C1733   1.439       .  S
C834       C1360   1.631       .  S
C834        C835   1.428       .  A
C835        C836   1.400       .  A
C835        H848   1.074       .  S
C836        C838   1.444       .  S
C837       C1729   1.440       .  S
C837        N841   1.158       .  T
C838        N842   1.157       .  T
C839        N844   1.157       .  T
C840        N843   1.157       .  T
C849        C850   1.391       .  A
C849        C854   1.400       .  A
C849        C863   1.444       .  S
C850        C855   1.483       .  S
C851        C852   1.406   1_545  A
C851        H870   1.088   1_545  S
C852        C864   1.433       .  S
C853        C854   1.436       .  A
C854        H869   1.076       .  S
C855        C860   1.406       .  A
C856        C857   1.402       .  A
C856        H871   1.085       .  S
C857        C861   1.444       .  S
C858        C859   1.410       .  A
C859        C860   1.399       .  A
C859        H872   1.084       .  S
C860        C862   1.444       .  S
C861        N865   1.157       .  T
C862        N866   1.157       .  T
C863        N868   1.157       .  T
C864        N867   1.157       .  T
C873        C874   1.416       .  A
C873        C878   1.406       .  A
C873        C887   1.444       .  S
C874        C879   1.493       .  S
C875        C876   1.401       .  A
C875        H894   1.083       .  S
C876        C888   1.445       .  S
C877        C878   1.403       .  A
C878        H893   1.084       .  S
C879        C884   1.400       .  A
C880        C881   1.403       .  A
C880        H895   1.086       .  S
C881        C885   1.448       .  S
C882        C883   1.402       .  A
C883        C884   1.407       .  A
C883        H896   1.056       .  S
C884        C886   1.445       .  S
C885        N889   1.158       .  T
C886        N890   1.157       .  T
C887        N892   1.157       .  T
C888        N891   1.157       .  T
C897       C1585   1.696       .  S
C897       C1152   1.683       .  S
C897       C1749   1.632       .  S
C897       C1554   1.611   1_556  S
O898       Ni906   1.932       .  S
O898       C1356   1.285       .  A
O899       Ni906   1.935       .  S
O899       C1357   1.285       .  A
O900       Ni906   1.894       .  S
O900       C1358   1.276       .  A
O901       Ni906   1.896       .  S
O901       C1359   1.276       .  A
O902       Ni907   1.944       .  S
O902        C911   1.287       .  A
O903       Ni907   1.944       .  S
O903        C910   1.288       .  A
O904       Ni907   1.900       .  S
O904        C909   1.275       .  A
O905       Ni907   1.891       .  S
O905        C908   1.276       .  A
Ni906     Ni1355   2.387       .  S
Ni907     Ni1354   2.387   1_545  S
C908       O1346   1.285   1_545  A
C908       C1082   1.486       .  S
C909       O1347   1.286   1_545  A
C909       C1053   1.472       .  S
C910       O1348   1.276   1_545  A
C910       C1034   1.488       .  S
C911       O1349   1.275   1_545  A
C911       C1101   1.482       .  S
C912        C913   1.697   1_565  S
C912       C1376   1.681       .  S
C913       C1569   1.693   1_545  S
C913        C981   1.633       .  S
C913       C1229   1.624       .  S
O914       Ni922   1.943       .  S
O914        C924   1.287       .  A
O915       Ni922   1.943       .  S
O915        C925   1.288       .  A
O916       Ni922   1.904       .  S
O916        C926   1.277       .  A
O917       Ni922   1.904       .  S
O917        C927   1.277       .  A
O918       Ni923   1.933       .  S
O918        C927   1.285       .  A
O919       Ni923   1.933       .  S
O919        C926   1.286       .  A
O920       Ni923   1.916       .  S
O920        C925   1.279       .  A
O921       Ni923   1.912       .  S
O921        C924   1.279       .  A
Ni922      Ni923   2.384       .  S
C924        C962   1.492       .  S
C925        C986   1.495       .  S
C926       C1010   1.485       .  S
C927        C933   1.480       .  S
C928       C1121   1.682       .  S
C928       C1360   1.679       .  S
C928        C938   1.597       .  S
C928       C1181   1.607       .  S
C929        C930   1.414       .  A
C929        C934   1.403       .  A
C929        C943   1.445       .  S
C930        C935   1.489       .  S
C930        C931   1.403       .  A
C931        C932   1.399       .  A
C931        H950   1.085       .  S
C932        C933   1.413       .  A
C932        C944   1.444       .  S
C933        C934   1.404       .  A
C934        H949   1.085       .  S
C935        C936   1.387       .  A
C935        C940   1.400       .  A
C936        C937   1.400       .  A
C936        H951   1.087       .  S
C937        C938   1.448       .  A
C937        C941   1.436       .  S
C938        C939   1.417       .  A
C939        C940   1.405       .  A
C939        H952   1.065       .  S
C940        C942   1.444       .  S
C941       N1169   1.158       .  T
C942        N946   1.157       .  T
C944        N947   1.157       .  T
N945       C1165   1.158       .  T
C953        C954   1.406       .  A
C953        C958   1.411       .  A
C953        C967   1.443       .  S
C954        C959   1.503       .  S
C954        C955   1.391       .  A
C955        C956   1.405       .  A
C955        H974   1.087       .  S
C956        C957   1.446       .  A
C956        C968   1.433       .  S
C957       C1152   1.604   1_554  S
C957        C958   1.420       .  A
C958        H973   1.068       .  S
C959        C960   1.405       .  A
C959        C964   1.418       .  A
C960        C961   1.404       .  A
C960        H975   1.084       .  S
C961        C962   1.416       .  A
C961        C965   1.444       .  S
C962        C963   1.405       .  A
C963        C964   1.407       .  A
C963        H976   1.085       .  S
C964        C966   1.445       .  S
C965        N969   1.157       .  T
C966        N970   1.157       .  T
C967        N972   1.157       .  T
C968        N971   1.158       .  T
C977        C978   1.405       .  A
C977        C982   1.413       .  A
C977        C991   1.443       .  S
C978        C983   1.502       .  S
C978        C979   1.387       .  A
C979        C980   1.401       .  A
C979        H998   1.088       .  S
C980        C981   1.454       .  A
C980        C992   1.443       .  S
C981        C982   1.424       .  A
C982        H997   1.074       .  S
C983        C984   1.405       .  A
C983        C988   1.414       .  A
C984        C985   1.406       .  A
C984        H999   1.085       .  S
C985        C986   1.417       .  A
C985        C989   1.444       .  S
C986        C987   1.406       .  A
C987        C988   1.407       .  A
C987       H1000   1.085       .  S
C988        C990   1.444       .  S
C989        N993   1.157       .  T
C990        N994   1.157       .  T
C991        N996   1.157       .  T
C992       N1219   1.159       .  T
N995       C1216   1.159       .  T
C1001      C1002   1.403       .  A
C1001      C1006   1.409       .  A
C1001      C1015   1.444       .  S
C1002      C1007   1.494       .  S
C1002      C1003   1.385       .  A
C1003      C1004   1.396       .  A
C1003      H1022   1.088       .  S
C1004      C1005   1.451       .  A
C1004      C1016   1.442       .  S
C1005      C1137   1.624   1_554  S
C1005      C1006   1.424       .  A
C1006      H1021   1.070       .  S
C1007      C1008   1.404       .  A
C1007      C1012   1.415       .  A
C1008      C1009   1.403       .  A
C1008      H1023   1.084       .  S
C1009      C1010   1.417       .  A
C1009      C1013   1.445       .  S
C1010      C1011   1.402       .  A
C1011      C1012   1.400       .  A
C1011      H1024   1.085       .  S
C1012      C1014   1.443       .  S
C1013      N1017   1.157       .  T
C1014      N1018   1.156       .  T
C1015      N1020   1.157       .  T
C1016      N1019   1.159   1_554  T
C1025      C1026   1.399   1_455  A
C1025      C1030   1.402       .  A
C1025      C1039   1.445       .  S
C1026      C1031   1.493       .  S
C1026      C1475   1.393       .  A
C1027      C1474   1.393       .  A
C1027      C1028   1.407       .  A
C1027      H1046   1.086       .  S
C1028      C1477   1.455   1_655  A
C1028      C1040   1.446       .  S
C1029      C1476   1.455   1_455  A
C1029      C1030   1.399       .  A
C1031      C1480   1.401       .  A
C1031      C1036   1.413   1_565  A
C1032      C1479   1.401       .  A
C1032      C1033   1.397       .  A
C1032      H1047   1.085       .  S
C1033      C1482   1.417       .  A
C1033      C1037   1.445       .  S
C1034      C1481   1.418   1_545  A
C1034      C1035   1.405       .  A
C1035      C1036   1.406       .  A
C1035      H1048   1.084       .  S
C1036      C1038   1.444       .  S
C1037      N1041   1.157       .  T
C1038      N1042   1.157       .  T
C1039      N1044   1.157   1_565  T
C1040      N1267   1.158       .  T
N1043      C1264   1.158       .  T
C1049      C1050   1.419       .  A
C1049      C1054   1.400       .  A
C1049      C1063   1.445       .  S
C1050      C1055   1.499       .  S
C1050      C1499   1.409       .  A
C1051      C1498   1.410       .  A
C1051      C1052   1.403       .  A
C1051      H1070   1.084       .  S
C1052      C1501   1.406       .  A
C1052      C1064   1.444       .  S
C1053      C1500   1.407       .  A
C1053      C1054   1.399       .  A
C1054      H1069   1.085       .  S
C1055      C1504   1.387   1_645  A
C1055      C1060   1.400       .  A
C1056      C1503   1.388   1_455  A
C1056      C1057   1.404       .  A
C1056      H1071   1.086       .  S
C1057      C1506   1.464       .  A
C1058      C1505   1.463   1_545  A
C1058      C1059   1.430       .  A
C1059      C1060   1.406   1_455  A
C1059      H1072   1.076   1_455  S
C1060      C1062   1.444       .  S
C1061      N1065   1.158       .  T
C1062      N1066   1.157       .  T
C1063      N1068   1.158   1_655  T
C1064      N1067   1.157       .  T
C1073      C1074   1.390       .  A
C1073      C1078   1.397       .  A
C1073      C1087   1.444       .  S
C1074      C1079   1.476       .  S
C1074      C1523   1.381       .  A
C1075      C1522   1.379       .  A
C1075      C1076   1.401       .  A
C1075      H1094   1.089       .  S
C1076      C1525   1.458       .  A
C1076      C1088   1.432       .  S
C1077      C1569   1.629   1_545  S
C1077      C1524   1.459   1_545  A
C1077      C1078   1.432       .  A
C1078      H1093   1.075       .  S
C1079      C1528   1.403   1_545  A
C1079      C1084   1.403       .  A
C1080      C1527   1.403       .  A
C1080      C1081   1.400       .  A
C1080      H1095   1.085       .  S
C1081      C1530   1.415       .  A
C1081      C1085   1.443       .  S
C1082      C1529   1.414   1_545  A
C1082      C1083   1.413       .  A
C1083      C1084   1.396       .  A
C1083      H1096   1.084       .  S
C1084      C1086   1.445       .  S
C1085      N1089   1.157       .  T
C1086      N1090   1.157       .  T
C1087      N1092   1.157       .  T
C1088      N1091   1.157       .  T
C1097      C1098   1.414   1_545  A
C1097      C1102   1.405       .  A
C1097      C1111   1.443       .  S
C1098      C1103   1.488       .  S
C1098      C1547   1.399       .  A
C1099      C1546   1.399       .  A
C1099      C1100   1.398       .  A
C1099      H1118   1.085       .  S
C1100      C1549   1.417       .  A
C1100      C1112   1.445       .  S
C1101      C1548   1.418   1_545  A
C1101      C1102   1.402       .  A
C1102      H1117   1.084       .  S
C1103      C1552   1.391       .  A
C1103      C1108   1.399       .  A
C1104      C1551   1.392       .  A
C1104      C1105   1.405       .  A
C1104      H1119   1.086       .  S
C1105      C1554   1.454       .  A
C1105      C1109   1.448   1_554  S
C1106      C1345   1.611   1_554  S
C1106      C1553   1.455       .  A
C1106      C1107   1.399       .  A
C1107      C1108   1.404       .  A
C1107      H1120   1.055   1_565  S
C1108      C1110   1.445   1_565  S
C1109      N1113   1.158       .  T
C1110      N1114   1.157       .  T
C1111      N1116   1.157       .  T
C1112      N1115   1.157       .  T
C1121      C1361   1.692       .  S
C1121      C1525   1.635       .  S
C1121      C1778   1.615       .  S
O1122     Ni1130   1.923       .  S
O1122      C1580   1.283       .  A
O1123     Ni1130   1.926       .  S
O1123      C1581   1.283       .  A
O1124     Ni1130   1.906       .  S
O1124      C1582   1.278       .  A
O1125     Ni1130   1.904       .  S
O1125      C1583   1.278       .  A
O1126     Ni1131   1.938       .  S
O1126      C1135   1.286       .  A
O1127     Ni1131   1.937       .  S
O1127      C1134   1.286       .  A
O1128     Ni1131   1.899       .  S
O1128      C1133   1.275       .  A
O1129     Ni1131   1.898       .  S
O1129      C1132   1.278       .  A
Ni1130    Ni1579   2.387       .  S
Ni1131    Ni1578   2.388   1_545  S
C1132      O1570   1.285   1_545  A
C1132      C1306   1.491       .  S
C1133      O1571   1.284   1_545  A
C1133      C1277   1.468       .  S
C1134      O1572   1.277   1_545  A
C1134      C1258   1.484       .  S
C1135      O1573   1.277   1_545  A
C1135      C1325   1.478       .  S
C1136      C1137   1.697   1_554  S
C1136      C1600   1.680   1_545  S
C1137      C1345   1.695   1_545  S
C1137      C1205   1.628       .  S
O1138     Ni1146   1.938       .  S
O1138      C1148   1.286       .  A
O1139     Ni1146   1.934       .  S
O1139      C1149   1.285       .  A
O1140     Ni1146   1.911       .  S
O1140      C1150   1.279       .  A
O1141     Ni1146   1.912       .  S
O1141      C1151   1.279       .  A
O1142     Ni1147   1.930       .  S
O1142      C1151   1.283       .  A
O1143     Ni1147   1.925       .  S
O1143      C1150   1.285       .  A
O1144     Ni1147   1.920       .  S
O1144      C1149   1.281       .  A
O1145     Ni1147   1.920       .  S
O1145      C1148   1.281       .  A
Ni1146    Ni1147   2.385       .  S
C1148      C1186   1.495       .  S
C1149      C1210   1.492       .  S
C1150      C1234   1.485       .  S
C1151      C1157   1.477       .  S
C1152      C1584   1.680   1_556  S
C1152      C1162   1.603       .  S
C1153      C1154   1.414       .  A
C1153      C1158   1.405       .  A
C1153      C1167   1.444       .  S
C1154      C1159   1.490       .  S
C1154      C1155   1.404       .  A
C1155      C1156   1.401       .  A
C1155      H1174   1.085       .  S
C1156      C1157   1.410       .  A
C1156      C1168   1.444       .  S
C1157      C1158   1.403       .  A
C1158      H1173   1.085       .  S
C1159      C1160   1.385       .  A
C1159      C1164   1.402       .  A
C1160      C1161   1.401       .  A
C1160      H1175   1.087       .  S
C1161      C1162   1.450       .  A
C1161      C1165   1.435       .  S
C1162      C1163   1.417       .  A
C1163      C1164   1.409       .  A
C1163      H1176   1.068       .  S
C1164      C1166   1.443       .  S
C1166      N1170   1.157       .  T
C1168      N1171   1.157       .  T
C1177      C1178   1.406       .  A
C1177      C1182   1.411       .  A
C1177      C1191   1.443       .  S
C1178      C1183   1.507       .  S
C1178      C1179   1.394       .  A
C1179      C1180   1.409       .  A
C1179      H1198   1.087       .  S
C1180      C1181   1.446       .  A
C1180      C1192   1.433       .  S
C1181      C1182   1.419       .  A
C1182      H1197   1.065       .  S
C1183      C1184   1.407       .  A
C1183      C1188   1.418       .  A
C1184      C1185   1.406       .  A
C1184      H1199   1.084       .  S
C1185      C1186   1.416       .  A
C1185      C1189   1.444       .  S
C1186      C1187   1.405       .  A
C1187      C1188   1.407       .  A
C1187      H1200   1.085       .  S
C1188      C1190   1.444       .  S
C1189      N1193   1.157       .  T
C1190      N1194   1.157       .  T
C1191      N1196   1.157       .  T
C1192      N1195   1.158       .  T
C1201      C1202   1.403       .  A
C1201      C1206   1.409       .  A
C1201      C1215   1.444       .  S
C1202      C1207   1.502       .  S
C1202      C1203   1.389       .  A
C1203      C1204   1.403       .  A
C1203      H1222   1.087       .  S
C1204      C1205   1.453       .  A
C1204      C1216   1.443       .  S
C1205      C1206   1.422       .  A
C1206      H1221   1.073       .  S
C1207      C1208   1.406       .  A
C1207      C1212   1.414       .  A
C1208      C1209   1.404       .  A
C1208      H1223   1.084       .  S
C1209      C1210   1.415       .  A
C1209      C1213   1.444       .  S
C1210      C1211   1.406       .  A
C1211      C1212   1.406       .  A
C1211      H1224   1.085       .  S
C1212      C1214   1.444       .  S
C1213      N1217   1.157       .  T
C1214      N1218   1.157       .  T
C1215      N1220   1.157       .  T
C1225      C1226   1.402       .  A
C1225      C1230   1.407       .  A
C1225      C1239   1.444       .  S
C1226      C1231   1.497       .  S
C1226      C1227   1.388       .  A
C1227      C1228   1.398       .  A
C1227      H1246   1.087       .  S
C1228      C1229   1.451       .  A
C1228      C1240   1.442       .  S
C1229      C1230   1.424       .  A
C1230      H1245   1.069       .  S
C1231      C1232   1.406       .  A
C1231      C1236   1.415       .  A
C1232      C1233   1.404       .  A
C1232      H1247   1.084       .  S
C1233      C1234   1.416       .  A
C1233      C1237   1.444       .  S
C1234      C1235   1.402       .  A
C1235      C1236   1.398       .  A
C1235      H1248   1.085       .  S
C1236      C1238   1.442       .  S
C1237      N1241   1.157       .  T
C1238      N1242   1.156       .  T
C1239      N1244   1.157       .  T
C1240      N1243   1.159       .  T
C1249      C1250   1.399   1_455  A
C1249      C1254   1.401       .  A
C1249      C1263   1.445   1_565  S
C1250      C1255   1.492       .  S
C1250      C1699   1.393       .  A
C1251      C1698   1.394       .  A
C1251      C1252   1.408       .  A
C1251      H1270   1.085       .  S
C1252      C1701   1.453   1_655  A
C1252      C1264   1.447   1_556  S
C1253      C1700   1.455   1_455  A
C1253      C1254   1.401       .  A
C1255      C1704   1.402       .  A
C1255      C1260   1.413   1_565  A
C1256      C1703   1.401       .  A
C1256      C1257   1.400       .  A
C1256      H1271   1.085       .  S
C1257      C1706   1.418       .  A
C1257      C1261   1.445       .  S
C1258      C1705   1.416   1_545  A
C1258      C1259   1.405       .  A
C1259      C1260   1.405       .  A
C1259      H1272   1.084       .  S
C1260      C1262   1.444       .  S
C1261      N1265   1.157       .  T
C1262      N1266   1.157       .  T
C1263      N1268   1.157       .  T
C1273      C1274   1.416       .  A
C1273      C1278   1.397       .  A
C1273      C1287   1.444       .  S
C1274      C1279   1.493       .  S
C1274      C1723   1.410       .  A
C1275      C1722   1.408       .  A
C1275      C1276   1.403       .  A
C1275      H1294   1.084       .  S
C1276      C1725   1.406       .  A
C1276      C1288   1.444       .  S
C1277      C1724   1.407       .  A
C1277      C1278   1.399       .  A
C1278      H1293   1.086       .  S
C1279      C1728   1.386   1_645  A
C1279      C1284   1.398       .  A
C1280      C1727   1.384   1_455  A
C1280      C1281   1.401       .  A
C1280      H1295   1.088       .  S
C1281      C1730   1.462       .  A
C1282      C1729   1.463   1_545  A
C1282      C1283   1.429       .  A
C1283      C1284   1.403   1_455  A
C1283      H1296   1.075       .  S
C1284      C1286   1.444       .  S
C1285      N1289   1.158       .  T
C1286      N1290   1.157       .  T
C1287      N1292   1.157   1_655  T
C1288      N1291   1.157       .  T
C1297      C1298   1.392       .  A
C1297      C1302   1.402       .  A
C1297      C1311   1.445       .  S
C1298      C1303   1.484       .  S
C1298      C1747   1.384       .  A
C1299      C1746   1.384       .  A
C1299      C1300   1.405       .  A
C1299      H1318   1.088       .  S
C1300      C1749   1.457       .  A
C1300      C1312   1.433       .  S
C1301      C1345   1.637   1_545  S
C1301      C1748   1.458   1_545  A
C1301      C1302   1.435       .  A
C1302      H1317   1.076       .  S
C1303      C1752   1.404   1_545  A
C1303      C1308   1.406       .  A
C1304      C1751   1.403       .  A
C1304      C1305   1.400       .  A
C1304      H1319   1.085       .  S
C1305      C1754   1.415       .  A
C1305      C1309   1.444       .  S
C1306      C1753   1.415   1_545  A
C1306      C1307   1.412       .  A
C1307      C1308   1.398       .  A
C1307      H1320   1.084       .  S
C1308      C1310   1.444       .  S
C1309      N1313   1.157       .  T
C1310      N1314   1.157       .  T
C1311      N1316   1.157       .  T
C1312      N1315   1.157       .  T
C1321      C1322   1.416   1_545  A
C1321      C1326   1.403       .  A
C1321      C1335   1.444       .  S
C1322      C1327   1.492       .  S
C1322      C1771   1.403       .  A
C1323      C1770   1.403       .  A
C1323      C1324   1.402       .  A
C1323      H1342   1.084       .  S
C1324      C1773   1.415       .  A
C1324      C1336   1.445       .  S
C1325      C1772   1.414   1_545  A
C1325      C1326   1.401       .  A
C1326      H1341   1.085       .  S
C1327      C1776   1.392       .  A
C1327      C1332   1.400       .  A
C1328      C1775   1.392       .  A
C1328      C1329   1.403       .  A
C1328      H1343   1.086       .  S
C1329      C1778   1.454       .  A
C1329      C1333   1.448       .  S
C1330      C1569   1.612       .  S
C1330      C1777   1.455       .  A
C1330      C1331   1.400       .  A
C1331      C1332   1.404       .  A
C1331      H1344   1.054   1_565  S
C1332      C1334   1.445   1_565  S
C1333      N1337   1.158       .  T
C1334      N1338   1.157       .  T
C1335      N1340   1.157       .  T
C1336      N1339   1.157       .  T
C1345      C1600   1.684   1_556  S
O1346     Ni1354   1.932       .  S
O1347     Ni1354   1.937       .  S
O1348     Ni1354   1.898       .  S
O1349     Ni1354   1.896       .  S
O1350     Ni1355   1.945       .  S
O1350      C1359   1.287       .  A
O1351     Ni1355   1.943       .  S
O1351      C1358   1.287       .  A
O1352     Ni1355   1.903       .  S
O1352      C1357   1.276       .  A
O1353     Ni1355   1.897       .  S
O1353      C1356   1.277       .  A
C1356      C1530   1.489       .  S
C1357      C1501   1.472       .  S
C1358      C1482   1.485       .  S
C1359      C1549   1.483       .  S
C1360      C1361   1.695       .  S
C1361      C1429   1.625       .  S
C1361      C1677   1.626       .  S
O1362     Ni1370   1.944       .  S
O1362      C1372   1.288       .  A
O1363     Ni1370   1.942       .  S
O1363      C1373   1.287       .  A
O1364     Ni1370   1.900       .  S
O1364      C1374   1.276       .  A
O1365     Ni1370   1.905       .  S
O1365      C1375   1.277       .  A
O1366     Ni1371   1.938       .  S
O1366      C1375   1.286       .  A
O1367     Ni1371   1.935       .  S
O1367      C1374   1.287       .  A
O1368     Ni1371   1.910       .  S
O1368      C1373   1.278       .  A
O1369     Ni1371   1.909       .  S
O1369      C1372   1.278       .  A
Ni1370    Ni1371   2.385       .  S
C1372      C1410   1.492       .  S
C1373      C1434   1.491       .  S
C1374      C1458   1.484       .  S
C1375      C1381   1.480       .  S
C1376      C1569   1.679       .  S
C1376      C1386   1.600       .  S
C1376      C1629   1.606       .  S
C1377      C1378   1.414       .  A
C1377      C1382   1.403       .  A
C1377      C1391   1.444       .  S
C1378      C1383   1.491       .  S
C1378      C1379   1.404       .  A
C1379      C1380   1.403       .  A
C1379      H1398   1.085       .  S
C1380      C1381   1.413       .  A
C1380      C1392   1.445       .  S
C1381      C1382   1.402       .  A
C1382      H1397   1.085       .  S
C1383      C1384   1.388       .  A
C1383      C1388   1.400       .  A
C1384      C1385   1.403       .  A
C1384      H1399   1.087       .  S
C1385      C1386   1.448       .  A
C1385      C1389   1.434       .  S
C1386      C1387   1.419       .  A
C1387      C1388   1.407       .  A
C1387      H1400   1.064       .  S
C1388      C1390   1.444       .  S
C1389      N1617   1.158       .  T
C1390      N1394   1.157       .  T
C1392      N1395   1.157       .  T
N1393      C1613   1.158       .  T
C1401      C1402   1.406       .  A
C1401      C1406   1.411       .  A
C1401      C1415   1.444       .  S
C1402      C1407   1.504       .  S
C1402      C1403   1.391       .  A
C1403      C1404   1.405       .  A
C1403      H1422   1.087       .  S
C1404      C1405   1.447       .  A
C1404      C1416   1.433       .  S
C1405      C1600   1.606       .  S
C1405      C1406   1.421       .  A
C1406      H1421   1.067       .  S
C1407      C1408   1.405       .  A
C1407      C1412   1.419       .  A
C1408      C1409   1.405       .  A
C1408      H1423   1.084       .  S
C1409      C1410   1.417       .  A
C1409      C1413   1.444       .  S
C1410      C1411   1.403       .  A
C1411      C1412   1.406       .  A
C1411      H1424   1.085       .  S
C1412      C1414   1.444       .  S
C1413      N1417   1.157       .  T
C1414      N1418   1.157       .  T
C1415      N1420   1.157       .  T
C1416      N1419   1.158       .  T
C1425      C1426   1.403       .  A
C1425      C1430   1.410       .  A
C1425      C1439   1.444       .  S
C1426      C1431   1.498       .  S
C1426      C1427   1.388       .  A
C1427      C1428   1.400       .  A
C1427      H1446   1.087       .  S
C1428      C1429   1.451       .  A
C1428      C1440   1.443       .  S
C1429      C1430   1.423       .  A
C1430      H1445   1.074       .  S
C1431      C1432   1.405       .  A
C1431      C1436   1.413       .  A
C1432      C1433   1.404       .  A
C1432      H1447   1.084       .  S
C1433      C1434   1.417       .  A
C1433      C1437   1.444       .  S
C1434      C1435   1.406       .  A
C1435      C1436   1.406       .  A
C1435      H1448   1.084       .  S
C1436      C1438   1.444       .  S
C1437      N1441   1.157       .  T
C1438      N1442   1.157       .  T
C1439      N1444   1.157       .  T
C1440      N1667   1.159       .  T
N1443      C1664   1.159       .  T
C1449      C1450   1.404       .  A
C1449      C1454   1.411       .  A
C1449      C1463   1.444       .  S
C1450      C1455   1.494       .  S
C1450      C1451   1.384       .  A
C1451      C1452   1.394       .  A
C1451      H1470   1.088       .  S
C1452      C1453   1.452       .  A
C1452      C1464   1.442       .  S
C1453      C1585   1.626   1_554  S
C1453      C1454   1.425       .  A
C1454      H1469   1.071       .  S
C1455      C1456   1.404       .  A
C1455      C1460   1.416       .  A
C1456      C1457   1.402       .  A
C1456      H1471   1.084       .  S
C1457      C1458   1.417       .  A
C1457      C1461   1.445       .  S
C1458      C1459   1.401       .  A
C1459      C1460   1.400       .  A
C1459      H1472   1.085       .  S
C1460      C1462   1.442       .  S
C1461      N1465   1.157       .  T
C1462      N1466   1.156       .  T
C1463      N1468   1.157       .  T
C1464      N1467   1.159   1_554  T
C1473      C1474   1.399   1_455  A
C1473      C1478   1.402       .  A
C1473      C1487   1.445       .  S
C1474      C1479   1.491       .  S
C1475      C1476   1.408       .  A
C1475      H1494   1.086       .  S
C1476      C1488   1.447       .  S
C1477      C1478   1.398       .  A
C1479      C1484   1.414       .  A
C1480      C1481   1.399       .  A
C1480      H1495   1.085       .  S
C1481      C1485   1.445       .  S
C1482      C1483   1.405       .  A
C1483      C1484   1.407       .  A
C1483      H1496   1.084       .  S
C1484      C1486   1.444       .  S
C1485      N1489   1.157       .  T
C1486      N1490   1.157       .  T
C1487      N1492   1.157       .  T
C1488      N1715   1.158       .  T
N1491      C1712   1.158       .  T
C1497      C1498   1.420       .  A
C1497      C1502   1.401       .  A
C1497      C1511   1.445       .  S
C1498      C1503   1.502       .  S
C1499      C1500   1.404       .  A
C1499      H1518   1.084       .  S
C1500      C1512   1.444       .  S
C1501      C1502   1.399       .  A
C1502      H1517   1.086       .  S
C1503      C1508   1.401       .  A
C1504      C1505   1.403       .  A
C1504      H1519   1.087       .  S
C1506      C1507   1.429       .  A
C1507      C1508   1.406   1_455  A
C1507      H1520   1.075       .  S
C1508      C1510   1.444       .  S
C1509      N1513   1.158       .  T
C1510      N1514   1.157       .  T
C1511      N1516   1.158   1_655  T
C1512      N1515   1.157       .  T
C1521      C1522   1.391       .  A
C1521      C1526   1.402       .  A
C1521      C1535   1.444       .  S
C1522      C1527   1.478       .  S
C1523      C1524   1.401   1_545  A
C1523      H1542   1.089   1_545  S
C1524      C1536   1.433       .  S
C1525      C1526   1.435       .  A
C1526      H1541   1.076       .  S
C1527      C1532   1.403       .  A
C1528      C1529   1.398       .  A
C1528      H1543   1.085       .  S
C1529      C1533   1.443       .  S
C1530      C1531   1.412       .  A
C1531      C1532   1.397       .  A
C1531      H1544   1.084       .  S
C1532      C1534   1.444       .  S
C1533      N1537   1.157       .  T
C1534      N1538   1.157       .  T
C1535      N1540   1.157       .  T
C1536      N1539   1.157       .  T
C1545      C1546   1.415       .  A
C1545      C1550   1.407       .  A
C1545      C1559   1.443       .  S
C1546      C1551   1.489       .  S
C1547      C1548   1.399       .  A
C1547      H1566   1.084       .  S
C1548      C1560   1.446       .  S
C1549      C1550   1.403       .  A
C1550      H1565   1.084       .  S
C1551      C1556   1.400       .  A
C1552      C1553   1.403       .  A
C1552      H1567   1.086       .  S
C1553      C1557   1.448   1_554  S
C1554      C1555   1.397       .  A
C1555      C1556   1.404       .  A
C1555      H1568   1.054       .  S
C1556      C1558   1.445       .  S
C1557      N1561   1.158       .  T
C1558      N1562   1.157       .  T
C1559      N1564   1.157       .  T
C1560      N1563   1.157       .  T
O1570     Ni1578   1.932       .  S
O1571     Ni1578   1.934       .  S
O1572     Ni1578   1.901       .  S
O1573     Ni1578   1.901       .  S
O1574     Ni1579   1.940       .  S
O1574      C1583   1.286       .  A
O1575     Ni1579   1.937       .  S
O1575      C1582   1.286       .  A
O1576     Ni1579   1.900       .  S
O1576      C1581   1.276       .  A
O1577     Ni1579   1.899       .  S
O1577      C1580   1.278       .  A
C1580      C1754   1.486       .  S
C1581      C1725   1.466       .  S
C1582      C1706   1.489       .  S
C1583      C1773   1.482       .  S
C1584      C1585   1.695   1_554  S
C1585      C1653   1.628       .  S
O1586     Ni1594   1.934       .  S
O1586      C1596   1.285       .  A
O1587     Ni1594   1.929       .  S
O1587      C1597   1.284       .  A
O1588     Ni1594   1.906       .  S
O1588      C1598   1.278       .  A
O1589     Ni1594   1.907       .  S
O1589      C1599   1.278       .  A
O1590     Ni1595   1.929       .  S
O1590      C1599   1.284       .  A
O1591     Ni1595   1.926       .  S
O1591      C1598   1.285       .  A
O1592     Ni1595   1.917       .  S
O1592      C1597   1.281       .  A
O1593     Ni1595   1.915       .  S
O1593      C1596   1.280       .  A
Ni1594    Ni1595   2.386       .  S
C1596      C1634   1.488       .  S
C1597      C1658   1.487       .  S
C1598      C1682   1.486       .  S
C1599      C1605   1.476       .  S
C1600      C1610   1.598   1_554  S
C1601      C1602   1.415       .  A
C1601      C1606   1.402       .  A
C1601      C1615   1.445       .  S
C1602      C1607   1.488       .  S
C1602      C1603   1.403       .  A
C1603      C1604   1.400       .  A
C1603      H1622   1.085       .  S
C1604      C1605   1.411       .  A
C1604      C1616   1.444       .  S
C1605      C1606   1.402       .  A
C1606      H1621   1.085       .  S
C1607      C1608   1.386       .  A
C1607      C1612   1.402       .  A
C1608      C1609   1.400       .  A
C1608      H1623   1.088       .  S
C1609      C1610   1.449       .  A
C1609      C1613   1.435       .  S
C1610      C1611   1.417       .  A
C1611      C1612   1.406       .  A
C1611      H1624   1.066       .  S
C1612      C1614   1.444       .  S
C1614      N1618   1.157       .  T
C1616      N1619   1.157       .  T
C1625      C1626   1.405       .  A
C1625      C1630   1.410       .  A
C1625      C1639   1.444       .  S
C1626      C1631   1.501       .  S
C1626      C1627   1.391       .  A
C1627      C1628   1.406       .  A
C1627      H1646   1.087       .  S
C1628      C1629   1.448       .  A
C1628      C1640   1.434       .  S
C1629      C1630   1.419       .  A
C1630      H1645   1.065       .  S
C1631      C1632   1.405       .  A
C1631      C1636   1.418       .  A
C1632      C1633   1.403       .  A
C1632      H1647   1.084       .  S
C1633      C1634   1.414       .  A
C1633      C1637   1.444       .  S
C1634      C1635   1.404       .  A
C1635      C1636   1.405       .  A
C1635      H1648   1.085       .  S
C1636      C1638   1.444       .  S
C1637      N1641   1.157       .  T
C1638      N1642   1.157       .  T
C1639      N1644   1.157       .  T
C1640      N1643   1.158       .  T
C1649      C1650   1.402       .  A
C1649      C1654   1.408       .  A
C1649      C1663   1.444       .  S
C1650      C1655   1.498       .  S
C1650      C1651   1.388       .  A
C1651      C1652   1.401       .  A
C1651      H1670   1.087       .  S
C1652      C1653   1.452       .  A
C1652      C1664   1.443       .  S
C1653      C1654   1.423       .  A
C1654      H1669   1.073       .  S
C1655      C1656   1.406       .  A
C1655      C1660   1.414       .  A
C1656      C1657   1.403       .  A
C1656      H1671   1.084       .  S
C1657      C1658   1.414       .  A
C1657      C1661   1.444       .  S
C1658      C1659   1.405       .  A
C1659      C1660   1.404       .  A
C1659      H1672   1.085       .  S
C1660      C1662   1.444       .  S
C1661      N1665   1.157       .  T
C1662      N1666   1.157       .  T
C1663      N1668   1.157       .  T
C1673      C1674   1.403       .  A
C1673      C1678   1.407       .  A
C1673      C1687   1.444       .  S
C1674      C1679   1.496       .  S
C1674      C1675   1.387       .  A
C1675      C1676   1.398       .  A
C1675      H1694   1.087       .  S
C1676      C1677   1.454       .  A
C1676      C1688   1.443       .  S
C1677      C1678   1.423       .  A
C1678      H1693   1.069       .  S
C1679      C1680   1.405       .  A
C1679      C1684   1.416       .  A
C1680      C1681   1.402       .  A
C1680      H1695   1.084       .  S
C1681      C1682   1.417       .  A
C1681      C1685   1.444       .  S
C1682      C1683   1.403       .  A
C1683      C1684   1.399       .  A
C1683      H1696   1.085       .  S
C1684      C1686   1.443       .  S
C1685      N1689   1.157       .  T
C1686      N1690   1.156       .  T
C1687      N1692   1.157       .  T
C1688      N1691   1.159       .  T
C1697      C1698   1.397   1_455  A
C1697      C1702   1.401       .  A
C1697      C1711   1.445       .  S
C1698      C1703   1.490       .  S
C1699      C1700   1.408       .  A
C1699      H1718   1.086       .  S
C1700      C1712   1.447   1_556  S
C1701      C1702   1.403       .  A
C1703      C1708   1.411       .  A
C1704      C1705   1.399       .  A
C1704      H1719   1.085       .  S
C1705      C1709   1.445       .  S
C1706      C1707   1.407       .  A
C1707      C1708   1.405       .  A
C1707      H1720   1.084       .  S
C1708      C1710   1.444       .  S
C1709      N1713   1.157       .  T
C1710      N1714   1.157       .  T
C1711      N1716   1.157       .  T
C1721      C1722   1.414       .  A
C1721      C1726   1.395       .  A
C1721      C1735   1.444       .  S
C1722      C1727   1.488       .  S
C1723      C1724   1.404       .  A
C1723      H1742   1.084       .  S
C1724      C1736   1.444   1_545  S
C1725      C1726   1.399       .  A
C1726      H1741   1.085       .  S
C1727      C1732   1.396       .  A
C1728      C1729   1.403       .  A
C1728      H1743   1.087       .  S
C1730      C1731   1.430       .  A
C1731      C1732   1.402   1_455  A
C1731      H1744   1.075       .  S
C1732      C1734   1.444       .  S
C1733      N1737   1.158       .  T
C1734      N1738   1.157       .  T
C1735      N1740   1.157   1_655  T
C1736      N1739   1.157       .  T
C1745      C1746   1.391       .  A
C1745      C1750   1.398       .  A
C1745      C1759   1.445       .  S
C1746      C1751   1.480       .  S
C1747      C1748   1.406   1_545  A
C1747      H1766   1.088   1_545  S
C1748      C1760   1.433       .  S
C1749      C1750   1.433       .  A
C1750      H1765   1.075       .  S
C1751      C1756   1.405       .  A
C1752      C1753   1.402       .  A
C1752      H1767   1.085       .  S
C1753      C1757   1.444       .  S
C1754      C1755   1.410       .  A
C1755      C1756   1.396       .  A
C1755      H1768   1.084       .  S
C1756      C1758   1.444       .  S
C1757      N1761   1.157       .  T
C1758      N1762   1.157       .  T
C1759      N1764   1.157       .  T
C1760      N1763   1.157       .  T
C1769      C1770   1.417       .  A
C1769      C1774   1.405       .  A
C1769      C1783   1.443       .  S
C1770      C1775   1.496       .  S
C1771      C1772   1.400       .  A
C1771      H1790   1.084       .  S
C1772      C1784   1.445       .  S
C1773      C1774   1.401       .  A
C1774      H1789   1.085       .  S
C1775      C1780   1.402       .  A
C1776      C1777   1.403       .  A
C1776      H1791   1.086       .  S
C1777      C1781   1.448       .  S
C1778      C1779   1.402       .  A
C1779      C1780   1.407       .  A
C1779      H1792   1.057       .  S
C1780      C1782   1.445       .  S
C1781      N1785   1.158       .  T
C1782      N1786   1.157       .  T
C1783      N1788   1.157       .  T
C1784      N1787   1.157       .  T
