geometry optimzed in LAMMPS
_audit_creation_date              2020-11-30 
_audit_creation_method            'lammps2cif' 
_symmetry_space_group_name_H-M    'P1' 
_symmetry_Int_Tables_number       1 
_symmetry_cell_setting            triclinic 
loop_ 
_symmetry_equiv_pos_as_xyz 
  x,y,z 
_cell_length_a                    85.82263199 
_cell_length_b                    85.94734132568523 
_cell_length_c                    86.38285103172257 
_cell_angle_alpha                 90.40974903581242 
_cell_angle_beta                  90.26869729669686 
_cell_angle_gamma                 90.20045688418018 
loop_ 
_atom_site_label 
_atom_site_type_symbol 
_atom_site_fract_x 
_atom_site_fract_y 
_atom_site_fract_z 
_atom_site_charge 
C1          C  0.25114433  0.23748956  0.25327350    -0.01200
C2          C  0.75051879  0.24614770  0.25061590    -0.01200
C3          C  0.25233441  0.74266752  0.24246706    -0.01200
C4          C  0.25246776  0.25480767  0.75104593    -0.01200
C5          C  0.75665970  0.74631055  0.24574495    -0.01200
C6          C  0.75280342  0.26089737  0.75378184    -0.01200
C7          C  0.24619021  0.75169574  0.74318812    -0.01200
C8          C  0.74946649  0.76061801  0.75320699    -0.01200
N9          N  0.40372905  0.20130368  0.24201664    -0.26000
N10         N  0.39550682  0.19913822  0.25471345    -0.33900
C11         C  0.38150436  0.19322585  0.25092898     0.02300
C12         C  0.38056837  0.19168984  0.23502683     0.08300
C13         C  0.39496343  0.19690047  0.22970768    -0.04800
H14         H  0.37193188  0.19216501  0.25899720     0.09000
H15         H  0.39833431  0.19850230  0.21779611     0.10200
Cu16       Cu  0.40021084  0.21034107  0.27535032     0.44200
Cu17       Cu  0.42527962  0.21285717  0.24271461     0.42000
Cu18       Cu  0.42587565  0.24263024  0.27301113     0.43900
N19         N  0.39606595  0.23111648  0.28656196    -0.33400
N20         N  0.40452926  0.24378021  0.28447416    -0.27700
C21         C  0.39624835  0.25623201  0.28930909    -0.03800
C22         C  0.38197614  0.25097989  0.29482287     0.08400
C23         C  0.38238128  0.23502316  0.29288892     0.02200
H24         H  0.39993306  0.26818507  0.28807321     0.09900
H25         H  0.37274233  0.22704841  0.29429476     0.09000
N26         N  0.44570388  0.23526510  0.26107720    -0.34900
N27         N  0.44552634  0.22466651  0.24988268    -0.27000
C28         C  0.46030189  0.22206614  0.24526390    -0.02300
C29         C  0.47030940  0.23133177  0.25407255     0.06300
C30         C  0.46056467  0.23954028  0.26394746     0.04400
H31         H  0.46356627  0.21353935  0.23663911     0.09500
H32         H  0.46401528  0.24787503  0.27273383     0.08400
N33         N  0.60324436  0.26471716  0.27002563    -0.26000
N34         N  0.61074943  0.26894872  0.25741287    -0.33900
C35         C  0.62476032  0.27468223  0.26131138     0.02300
C36         C  0.62635046  0.27416619  0.27717335     0.08300
C37         C  0.61240672  0.26788624  0.28244967    -0.04800
H38         H  0.63379528  0.27759546  0.25305385     0.09000
H39         H  0.60970534  0.26465332  0.29423871     0.10200
Cu40       Cu  0.60509572  0.26109287  0.23562630     0.44200
Cu41       Cu  0.58229045  0.25224814  0.26800865     0.42000
Cu42       Cu  0.58356093  0.22599539  0.23440452     0.43900
N43         N  0.61207985  0.24202878  0.22309892    -0.33400
N44         N  0.60525017  0.22827033  0.22377854    -0.27700
C45         C  0.61523438  0.21743627  0.21829289    -0.03800
C46         C  0.62894097  0.22492048  0.21397967     0.08400
C47         C  0.62638935  0.24045667  0.21721601     0.02200
H48         H  0.61295636  0.20506310  0.21808591     0.09900
H49         H  0.63488915  0.24975145  0.21682003     0.09000
N50         N  0.56317482  0.23131998  0.24649444    -0.34900
N51         N  0.56274524  0.24070181  0.25870869    -0.27000
C52         C  0.54779612  0.24245118  0.26308265    -0.02300
C53         C  0.53825444  0.23383816  0.25316350     0.06300
C54         C  0.54850795  0.22694315  0.24279487     0.04400
H55         H  0.54411480  0.24999478  0.27242330     0.09500
H56         H  0.54556191  0.21939318  0.23315937     0.08400
N57         N  0.22744088  0.38071490  0.23108568    -0.26000
N58         N  0.23993501  0.37201260  0.22911734    -0.33900
C59         C  0.23562455  0.35743537  0.22551025     0.02300
C60         C  0.21959277  0.35675026  0.22495794     0.08300
C61         C  0.21467361  0.37179824  0.22836953    -0.04800
H62         H  0.24361376  0.34777167  0.22425126     0.09000
H63         H  0.20276741  0.37568801  0.22971470     0.10200
Cu64       Cu  0.26188281  0.37845779  0.23611109     0.44200
Cu65       Cu  0.22985194  0.40340422  0.23992163     0.42000
Cu66       Cu  0.26233087  0.40481089  0.26769267     0.43900
N67         N  0.27434107  0.37439926  0.25589152    -0.33400
N68         N  0.27309681  0.38282110  0.26866490    -0.27700
C69         C  0.27860377  0.37430215  0.28064824    -0.03800
C70         C  0.28362140  0.35998913  0.27484720     0.08400
C71         C  0.28070254  0.36061277  0.25916789     0.02200
H72         H  0.27853520  0.37800359  0.29261354     0.09900
H73         H  0.28176645  0.35115427  0.25094861     0.09000
N74         N  0.25058709  0.42472499  0.25954229    -0.34900
N75         N  0.23879717  0.42410255  0.24960034    -0.27000
C76         C  0.23433142  0.43872632  0.24621734    -0.02300
C77         C  0.24371199  0.44922955  0.25430751     0.06300
C78         C  0.25391555  0.43982523  0.26262092     0.04400
H79         H  0.22523518  0.44149493  0.23800871     0.09500
H80         H  0.26312542  0.44365389  0.27032124     0.08400
N81         N  0.27294671  0.58333714  0.25694693    -0.26000
N82         N  0.27497820  0.58982235  0.24331744    -0.33900
C83         C  0.28121465  0.60405303  0.24523888     0.02300
C84         C  0.28319488  0.60684884  0.26091309     0.08300
C85         C  0.27788764  0.59335307  0.26803129    -0.04800
H86         H  0.28222842  0.61249073  0.23607879     0.09000
H87         H  0.27660128  0.59143856  0.28027835     0.10200
Cu88       Cu  0.26280445  0.58253950  0.22407664     0.44200
Cu89       Cu  0.26043896  0.56260000  0.25874704     0.42000
Cu90       Cu  0.22779838  0.56142178  0.23167231     0.43900
N91         N  0.24137318  0.58914919  0.21591456    -0.33400
N92         N  0.22793268  0.58287086  0.21992634    -0.27700
C93         C  0.21644834  0.59312320  0.21648578    -0.03800
C94         C  0.22319679  0.60636452  0.20995842     0.08400
C95         C  0.23896099  0.60322841  0.20993493     0.02200
H96         H  0.20427437  0.59138588  0.21914455     0.09900
H97         H  0.24827152  0.61130964  0.20734775     0.09000
N98         N  0.23626891  0.54162088  0.24336651    -0.34900
N99         N  0.24809952  0.54231112  0.25323897    -0.27000
C100        C  0.25172803  0.52781556  0.25780774    -0.02300
C101        C  0.24181530  0.51725975  0.25049944     0.06300
C102        C  0.23209221  0.52653087  0.24146931     0.04400
H103        H  0.26113635  0.52518418  0.26570028     0.09500
H104        H  0.22312710  0.52255081  0.23355212     0.08400
N105        N  0.22918451  0.21891664  0.41121406    -0.26000
N106        N  0.24314595  0.21568694  0.40576204    -0.33900
C107        C  0.24174245  0.20702104  0.39288575     0.02300
C108        C  0.22611425  0.20481529  0.38968204     0.08300
C109        C  0.21840482  0.21245228  0.40168983    -0.04800
H110        H  0.25126114  0.20485278  0.38500531     0.09000
H111        H  0.20604340  0.21447012  0.40257199     0.10200
Cu112      Cu  0.26204477  0.22981038  0.40975698     0.44200
Cu113      Cu  0.22672116  0.23504362  0.42922919     0.42000
Cu114      Cu  0.25477024  0.26699387  0.42572744     0.43900
N115        N  0.26940346  0.24999223  0.39940486    -0.33400
N116        N  0.26608059  0.26408164  0.40458074    -0.27700
C117        C  0.26935123  0.27444536  0.39335926    -0.03800
C118        C  0.27463302  0.26630844  0.38044587     0.08400
C119        C  0.27457989  0.25089246  0.38482416     0.02200
H120        H  0.26704599  0.28679537  0.39414187     0.09900
H121        H  0.27721857  0.24089225  0.37761153     0.09000
N122        N  0.24305841  0.26164815  0.44617611    -0.34900
N123        N  0.23266421  0.25029781  0.44729853    -0.27000
C124        C  0.22839683  0.24895741  0.46221142    -0.02300
C125        C  0.23655054  0.25986231  0.47099849     0.06300
C126        C  0.24572791  0.26771563  0.46038827     0.04400
H127        H  0.22067376  0.24002977  0.46647448     0.09500
H128        H  0.25406698  0.27684594  0.46284481     0.08400
N129        N  0.25367798  0.28832766  0.60554937    -0.26000
N130        N  0.24192238  0.29087473  0.61506034    -0.33900
C131        C  0.24749947  0.29549522  0.62888272     0.02300
C132        C  0.26355786  0.29574463  0.62822762     0.08300
C133        C  0.26714693  0.29107774  0.61324672    -0.04800
H134        H  0.24042638  0.29708007  0.63913835     0.09000
H135        H  0.27862259  0.28918579  0.60853093     0.10200
Cu136      Cu  0.21962877  0.28263454  0.61127017     0.44200
Cu137      Cu  0.25026935  0.27938081  0.58326743     0.42000
Cu138      Cu  0.21804220  0.25231286  0.58291949     0.43900
N139        N  0.20674557  0.26261851  0.61419357    -0.33400
N140        N  0.20752432  0.25061395  0.60459400    -0.27700
C141        C  0.20303572  0.23771779  0.61220006    -0.03800
C142        C  0.19920175  0.24189057  0.62728654     0.08400
C143        C  0.20156406  0.25778296  0.62798570     0.02200
H144        H  0.20393305  0.22603497  0.60756959     0.09900
H145        H  0.20185677  0.26485688  0.63841321     0.09000
N146        N  0.22973363  0.25921528  0.56294229    -0.34900
N147        N  0.24143759  0.26925591  0.56300442    -0.27000
C148        C  0.24575442  0.27197535  0.54827810    -0.02300
C149        C  0.23630909  0.26322749  0.53838205     0.06300
C150        C  0.22634130  0.25524761  0.54819883     0.04400
H151        H  0.25475655  0.28011697  0.54504608     0.09500
H152        H  0.21721016  0.24718338  0.54492820     0.08400
N153        N  0.40407598  0.75902214  0.22630660    -0.26000
N154        N  0.39583274  0.74640833  0.22317297    -0.33900
C155        C  0.38288752  0.75027671  0.21553968     0.02300
C156        C  0.38272772  0.76618535  0.21353142     0.08300
C157        C  0.39638939  0.77149050  0.22063567    -0.04800
H158        H  0.37347401  0.74219752  0.21303519     0.09000
H159        H  0.40013938  0.78343780  0.22205596     0.10200
Cu160      Cu  0.39878681  0.72566191  0.23416108     0.44200
Cu161      Cu  0.42446327  0.75666856  0.23929144     0.42000
Cu162      Cu  0.42184210  0.72421138  0.26741204     0.43900
N163        N  0.39068287  0.71634583  0.25430904    -0.33400
N164        N  0.39863538  0.71633876  0.26741944    -0.27700
C165        C  0.38876841  0.71256307  0.27900260    -0.03800
C166        C  0.37391106  0.71056374  0.27268657     0.08400
C167        C  0.37570314  0.71298957  0.25704816     0.02200
H168        H  0.39191203  0.71226109  0.29113315     0.09900
H169        H  0.36659147  0.71317362  0.24836044     0.09000
N170        N  0.44283780  0.73376112  0.25917260    -0.34900
N171        N  0.44358280  0.74531432  0.24911406    -0.27000
C172        C  0.45853561  0.74747564  0.24496214    -0.02300
C173        C  0.46778572  0.73689047  0.25275406     0.06300
C174        C  0.45741607  0.72844300  0.26175074     0.04400
H175        H  0.46233701  0.75595277  0.23662624     0.09500
H176        H  0.46016974  0.71868822  0.26905610     0.08400
N177        N  0.60382085  0.72533977  0.27208320    -0.26000
N178        N  0.60970462  0.73946478  0.27367446    -0.33900
C179        C  0.62453603  0.73854147  0.27839261     0.02300
C180        C  0.62847700  0.72306088  0.28007474     0.08300
C181        C  0.61495381  0.71492305  0.27595136    -0.04800
H182        H  0.63231439  0.74843877  0.27898312     0.09000
H183        H  0.61351274  0.70245811  0.27517271     0.10200
Cu184      Cu  0.60040432  0.75905777  0.26388929     0.44200
Cu185      Cu  0.58161964  0.72242979  0.26231158     0.42000
Cu186      Cu  0.57875543  0.75003033  0.23067898     0.43900
N187        N  0.60548113  0.76867093  0.24285084    -0.33400
N188        N  0.59888644  0.76382038  0.22983825    -0.27700
C189        C  0.60826091  0.76769828  0.21792924    -0.03800
C190        C  0.62118030  0.77552726  0.22391555     0.08400
C191        C  0.61898707  0.77582129  0.23969258     0.02200
H192        H  0.60644400  0.76406315  0.20603808     0.09900
H193        H  0.62754622  0.77917896  0.24835285     0.09000
N194        N  0.55954454  0.73820350  0.23989021    -0.34900
N195        N  0.56053331  0.72826906  0.25148842    -0.27000
C196        C  0.54601279  0.72426422  0.25589652    -0.02300
C197        C  0.53526368  0.73203794  0.24668967     0.06300
C198        C  0.54438314  0.74071786  0.23664204     0.04400
H199        H  0.54351359  0.71657691  0.26542778     0.09500
H200        H  0.54032495  0.74902185  0.22822599     0.08400
N201        N  0.40453407  0.27820985  0.73542627    -0.26000
N202        N  0.39820085  0.26502750  0.73056847    -0.33900
C203        C  0.38499524  0.26799420  0.72281669     0.02300
C204        C  0.38264059  0.28387252  0.72273175     0.08300
C205        C  0.39524526  0.29008150  0.73095293    -0.04800
H206        H  0.37696856  0.25914966  0.71872522     0.09000
H207        H  0.39724448  0.30218262  0.73382074     0.10200
Cu208      Cu  0.40431238  0.24367737  0.73915551     0.44200
Cu209      Cu  0.42501978  0.27763830  0.74880334     0.42000
Cu210      Cu  0.42658212  0.24315840  0.77375183     0.43900
N211        N  0.39867721  0.22992874  0.75764796    -0.33400
N212        N  0.40580783  0.23055066  0.77120369    -0.27700
C213        C  0.39643199  0.22396245  0.78187906    -0.03800
C214        C  0.38272790  0.21904857  0.77455252     0.08400
C215        C  0.38475859  0.22307941  0.75922260     0.02200
H216        H  0.39898977  0.22367601  0.79412924     0.09900
H217        H  0.37599801  0.22285007  0.75018680     0.09000
N218        N  0.44581064  0.25749958  0.76921699    -0.34900
N219        N  0.44525339  0.26986519  0.76017085    -0.27000
C220        C  0.45982463  0.27553648  0.75850896    -0.02300
C221        C  0.47012469  0.26637041  0.76690068     0.06300
C222        C  0.46072788  0.25508628  0.77357379     0.04400
H223        H  0.46271857  0.28540515  0.75142647     0.09500
H224        H  0.46453896  0.24535035  0.78042726     0.08400
N225        N  0.60054551  0.28170625  0.73353387    -0.26000
N226        N  0.60773718  0.26846561  0.73061452    -0.33900
C227        C  0.62018956  0.27117294  0.72172974     0.02300
C228        C  0.62116954  0.28693284  0.71906232     0.08300
C229        C  0.60854467  0.29335573  0.72679006    -0.04800
H230        H  0.62923984  0.26272155  0.71951905     0.09000
H231        H  0.60620257  0.30558700  0.72853940     0.10200
Cu232      Cu  0.60593361  0.24971790  0.74500908     0.44200
Cu233      Cu  0.58183651  0.28234907  0.74880584     0.42000
Cu234      Cu  0.58430316  0.25341583  0.77961989     0.43900
N235        N  0.61468824  0.24317156  0.76615680    -0.33400
N236        N  0.60728402  0.24487181  0.77942972    -0.27700
C237        C  0.61742853  0.24180709  0.79107137    -0.03800
C238        C  0.63192250  0.23844827  0.78463232     0.08400
C239        C  0.62958826  0.23939584  0.76886202     0.02200
H240        H  0.61469870  0.24266195  0.80325326     0.09900
H241        H  0.63827873  0.23792548  0.75991008     0.09000
N242        N  0.56335431  0.26405000  0.77253400    -0.34900
N243        N  0.56278852  0.27488468  0.76174202    -0.27000
C244        C  0.54782187  0.27863249  0.75899107    -0.02300
C245        C  0.53824477  0.26964853  0.76830966     0.06300
C246        C  0.54862087  0.26059173  0.77682751     0.04400
H247        H  0.54426567  0.28701427  0.75046445     0.09500
H248        H  0.54569104  0.25157896  0.78495039     0.08400
N249        N  0.22137603  0.76188003  0.39473655    -0.26000
N250        N  0.21889110  0.74874530  0.38715556    -0.33900
C251        C  0.21213552  0.75176153  0.37354548     0.02300
C252        C  0.21009270  0.76766060  0.37227584     0.08300
C253        C  0.21608574  0.77377146  0.38606478    -0.04800
H254        H  0.21081896  0.74317364  0.36444002     0.09000
H255        H  0.21755226  0.78589886  0.38909796     0.10200
Cu256      Cu  0.23050840  0.72854841  0.39175526     0.44200
Cu257      Cu  0.23472217  0.76170913  0.41482926     0.42000
Cu258      Cu  0.26515343  0.73107418  0.41305426     0.43900
N259        N  0.25053935  0.71800241  0.38443716    -0.33400
N260        N  0.26421724  0.71974224  0.39126126    -0.27700
C261        C  0.27530380  0.71439202  0.38143200    -0.03800
C262        C  0.26802945  0.70909061  0.36782443     0.08400
C263        C  0.25237029  0.71175845  0.37034008     0.02200
H264        H  0.28767110  0.71473953  0.38380999     0.09900
H265        H  0.24299000  0.71052643  0.36202206     0.09000
N266        N  0.25804688  0.74276791  0.43350170    -0.34900
N267        N  0.24725573  0.75374787  0.43384875    -0.27000
C268        C  0.24454000  0.75790651  0.44863430    -0.02300
C269        C  0.25402245  0.74923793  0.45830883     0.06300
C270        C  0.26244180  0.73974678  0.44822398     0.04400
H271        H  0.23569323  0.76610148  0.45205889     0.09500
H272        H  0.27096749  0.73109426  0.45132454     0.08400
N273        N  0.28151487  0.73986034  0.59190648    -0.26000
N274        N  0.28315371  0.75320205  0.59938670    -0.33900
C275        C  0.28981849  0.75071308  0.61320356     0.02300
C276        C  0.29242309  0.73495838  0.61476328     0.08300
C277        C  0.28701388  0.72836068  0.60096899    -0.04800
H278        H  0.29065610  0.75940685  0.62227416     0.09000
H279        H  0.28606455  0.71610935  0.59823797     0.10200
Cu280      Cu  0.27000902  0.77236550  0.59427025     0.44200
Cu281      Cu  0.26926554  0.73902831  0.57096851     0.42000
Cu282      Cu  0.23711895  0.76745259  0.56992537     0.43900
N283        N  0.24848634  0.78123212  0.59958159    -0.33400
N284        N  0.23566918  0.77876385  0.59143882    -0.27700
C285        C  0.22330991  0.78315562  0.60011322    -0.03800
C286        C  0.22877364  0.78855538  0.61444631     0.08400
C287        C  0.24479660  0.78695327  0.61350944     0.02200
H288        H  0.21130298  0.78191036  0.59648758     0.09900
H289        H  0.25319685  0.78837319  0.62275910     0.09000
N290        N  0.24618827  0.75610650  0.55034975    -0.34900
N291        N  0.25762403  0.74581027  0.55079282    -0.27000
C292        C  0.26144421  0.74178102  0.53618943    -0.02300
C293        C  0.25206171  0.74992887  0.52594402     0.06300
C294        C  0.24250661  0.75886673  0.53542409     0.04400
H295        H  0.27090046  0.73406550  0.53327340     0.09500
H296        H  0.23368044  0.76698665  0.53178283     0.08400
N297        N  0.22193402  0.40777258  0.76576859    -0.26000
N298        N  0.21841236  0.40022100  0.75285808    -0.33900
C299        C  0.21141640  0.38671991  0.75631153     0.02300
C300        C  0.21056742  0.38543863  0.77222737     0.08300
C301        C  0.21732691  0.39909726  0.77789939    -0.04800
H302        H  0.20916652  0.37755564  0.74794883     0.09000
H303        H  0.21983275  0.40192341  0.78985775     0.10200
Cu304      Cu  0.22948441  0.40437606  0.73224694     0.44200
Cu305      Cu  0.23561862  0.42790107  0.76526872     0.42000
Cu306      Cu  0.26457990  0.42678124  0.73447729     0.43900
N307        N  0.24982639  0.39757873  0.72172709    -0.33400
N308        N  0.26327743  0.40496302  0.72331782    -0.27700
C309        C  0.27479633  0.39518165  0.71896712    -0.03800
C310        C  0.26816813  0.38095017  0.71472637     0.08400
C311        C  0.25233824  0.38305886  0.71653132     0.02200
H312        H  0.28709543  0.39770055  0.72021139     0.09900
H313        H  0.24338968  0.37422543  0.71559170     0.09000
N314        N  0.25927089  0.44698002  0.74732339    -0.34900
N315        N  0.24873111  0.44720112  0.75846050    -0.27000
C316        C  0.24678215  0.46196501  0.76339810    -0.02300
C317        C  0.25651418  0.47166504  0.75501137     0.06300
C318        C  0.26435044  0.46168660  0.74498208     0.04400
H319        H  0.23849111  0.46540950  0.77208194     0.09500
H320        H  0.27239704  0.46497939  0.73603060     0.08400
N321        N  0.26742748  0.60474224  0.72246015    -0.26000
N322        N  0.25413817  0.61140831  0.71858494    -0.33900
C323        C  0.25704544  0.62501756  0.71169833     0.02300
C324        C  0.27296875  0.62731793  0.71118854     0.08300
C325        C  0.27926940  0.61418726  0.71816722    -0.04800
H326        H  0.24815300  0.63336206  0.70870214     0.09000
H327        H  0.29144001  0.61197727  0.72050360     0.10200
Cu328      Cu  0.23284300  0.60549086  0.72767682     0.44200
Cu329      Cu  0.26756515  0.58394771  0.73501338     0.42000
Cu330      Cu  0.23504485  0.58374278  0.76203635     0.43900
N331        N  0.21976515  0.61084371  0.74685083    -0.33400
N332        N  0.22165525  0.60392329  0.76031431    -0.27700
C333        C  0.21563433  0.61312489  0.77151094    -0.03800
C334        C  0.20970579  0.62647679  0.76463894     0.08400
C335        C  0.21249173  0.62446094  0.74900085     0.02200
H336        H  0.21647660  0.61076850  0.78374980     0.09900
H337        H  0.21118292  0.63313957  0.74010054     0.09000
N338        N  0.24874080  0.56423474  0.75714839    -0.34900
N339        N  0.26049368  0.56416744  0.74729268    -0.27000
C340        C  0.26561661  0.54940837  0.74558887    -0.02300
C341        C  0.25661044  0.53964466  0.75474523     0.06300
C342        C  0.24611510  0.54958731  0.76196341     0.04400
H343        H  0.27456586  0.54595028  0.73758157     0.09500
H344        H  0.23690761  0.54641877  0.76977109     0.08400
C345        C  0.30057311  0.71040794  0.67723905     0.87800
C346        C  0.29728999  0.69304161  0.67957989    -0.52500
C347        C  0.29645164  0.68844965  0.69466697     0.10700
C348        C  0.30003669  0.70183941  0.70632517     0.21600
C349        C  0.28861716  0.71902633  0.68720462    -0.53200
C350        C  0.28783047  0.71458011  0.70241253     0.10800
C351        C  0.31610319  0.71271640  0.68571723    -0.52700
C352        C  0.31596034  0.70853528  0.70091204     0.11300
H353        H  0.29612354  0.68486963  0.67001494     0.15900
H354        H  0.29997892  0.69798410  0.71849883     0.01600
H355        H  0.28166985  0.72834372  0.68238839     0.16200
H356        H  0.32663385  0.71696150  0.68027207     0.16000
N357        N  0.22674370  0.26491375  0.89924551    -0.26000
N358        N  0.22334589  0.25272975  0.89042359    -0.33900
C359        C  0.21914935  0.25752308  0.87628879     0.02300
C360        C  0.21990293  0.27354370  0.87593876     0.08300
C361        C  0.22460555  0.27794952  0.89078927    -0.04800
H362        H  0.21712629  0.24981707  0.86654037     0.09000
H363        H  0.22755446  0.28957716  0.89468531     0.10200
Cu364      Cu  0.23019915  0.23030413  0.89490011     0.44200
Cu365      Cu  0.23695623  0.26194112  0.92118241     0.42000
Cu366      Cu  0.26301908  0.22858492  0.91941513     0.43900
N367        N  0.24919299  0.21677918  0.88969920    -0.33400
N368        N  0.26219745  0.21742695  0.89790590    -0.27700
C369        C  0.27402996  0.21237948  0.88900311    -0.03800
C370        C  0.26809932  0.20836086  0.87450928     0.08400
C371        C  0.25230359  0.21119530  0.87549537     0.02200
H372        H  0.28618180  0.21297266  0.89233000     0.09900
H373        H  0.24414047  0.21143209  0.86590951     0.09000
N374        N  0.25777064  0.24048936  0.93986692    -0.34900
N375        N  0.24800557  0.25235486  0.94068572    -0.27000
C376        C  0.24592938  0.25614655  0.95572995    -0.02300
C377        C  0.25490012  0.24628067  0.96481062     0.06300
C378        C  0.26226382  0.23657032  0.95428579     0.04400
H379        H  0.23822990  0.26519695  0.95976465     0.09500
H380        H  0.26968997  0.22682054  0.95694544     0.08400
N381        N  0.28245130  0.22833639  0.10009254    -0.26000
N382        N  0.28435216  0.24165906  0.10758636    -0.33900
C383        C  0.28863065  0.23892028  0.12224700     0.02300
C384        C  0.28959977  0.22304351  0.12442473     0.08300
C385        C  0.28555127  0.21661142  0.11005185    -0.04800
H386        H  0.28953245  0.24785711  0.13106056     0.09000
H387        H  0.28442917  0.20439630  0.10722052     0.10200
Cu388      Cu  0.27553940  0.26257987  0.10037378     0.44200
Cu389      Cu  0.27366498  0.22819078  0.07722225     0.42000
Cu390      Cu  0.24276591  0.25664958  0.07667241     0.43900
N391        N  0.25430757  0.27226244  0.10528596    -0.33400
N392        N  0.24153384  0.26867770  0.09747634    -0.27700
C393        C  0.22906747  0.27172528  0.10640447    -0.03800
C394        C  0.23436809  0.27743886  0.12057165     0.08400
C395        C  0.25041690  0.27768841  0.11930979     0.02200
H396        H  0.21720188  0.26878109  0.10328890     0.09900
H397        H  0.25868982  0.27946844  0.12864239     0.09000
N398        N  0.25124649  0.24599476  0.05684565    -0.34900
N399        N  0.26276113  0.23580929  0.05665346    -0.27000
C400        C  0.26626587  0.23257162  0.04171790    -0.02300
C401        C  0.25641024  0.24111246  0.03210980     0.06300
C402        C  0.24712055  0.24945398  0.04225083     0.04400
H403        H  0.27538877  0.22474043  0.03814912     0.09500
H404        H  0.23846070  0.25803052  0.03929930     0.08400
N405        N  0.26041577  0.89108959  0.21033019    -0.26000
N406        N  0.24752079  0.88268654  0.20954750    -0.33900
C407        C  0.25113783  0.86776090  0.20675601     0.02300
C408        C  0.26713452  0.86653072  0.20569244     0.08300
C409        C  0.27268456  0.88162115  0.20783525    -0.04800
H410        H  0.24276981  0.85834399  0.20670568     0.09000
H411        H  0.28474447  0.88519081  0.20882205     0.10200
Cu412      Cu  0.22647219  0.88972532  0.21827624     0.44200
Cu413      Cu  0.26005831  0.91410663  0.21829126     0.42000
Cu414      Cu  0.23359773  0.91390521  0.25076524     0.43900
N415        N  0.21748012  0.88512456  0.23970188    -0.33400
N416        N  0.22155407  0.89295639  0.25228533    -0.27700
C417        C  0.21872632  0.88404274  0.26475449    -0.03800
C418        C  0.21264245  0.86988366  0.25963617     0.08400
C419        C  0.21196321  0.87114162  0.24371294     0.02200
H420        H  0.22192056  0.88720001  0.27646974     0.09900
H421        H  0.20972040  0.86180371  0.23552622     0.09000
N422        N  0.24410344  0.93396281  0.24235123    -0.34900
N423        N  0.25339841  0.93428441  0.23018785    -0.27000
C424        C  0.25682523  0.94924927  0.22693196    -0.02300
C425        C  0.24939685  0.95876875  0.23766819     0.06300
C426        C  0.24147382  0.94860911  0.24722899     0.04400
H427        H  0.26404030  0.95289106  0.21744453     0.09500
H428        H  0.23378880  0.95163977  0.25661122     0.08400
N429        N  0.21675153  0.09086548  0.26198523    -0.26000
N430        N  0.21210945  0.09947666  0.25024353    -0.33900
C431        C  0.20714699  0.11327851  0.25552460     0.02300
C432        C  0.20883198  0.11368515  0.27141524     0.08300
C433        C  0.21493563  0.09918435  0.27518339    -0.04800
H434        H  0.20454404  0.12305938  0.24814275     0.09000
H435        H  0.21877194  0.09539680  0.28645653     0.10200
Cu436      Cu  0.21938083  0.09612135  0.22790668     0.44200
Cu437      Cu  0.22794684  0.06953138  0.25830448     0.42000
Cu438      Cu  0.25243521  0.07212741  0.22416540     0.43900
N439        N  0.23882153  0.10288035  0.21589109    -0.33400
N440        N  0.25163328  0.09446218  0.21508378    -0.27700
C441        C  0.26340356  0.10361336  0.21022793    -0.03800
C442        C  0.25766229  0.11853556  0.20817119     0.08400
C443        C  0.24205730  0.11758538  0.21186172     0.02200
H444        H  0.27547706  0.10007193  0.20969388     0.09900
H445        H  0.23399694  0.12715798  0.21294765     0.09000
N446        N  0.24763951  0.05137020  0.23548842    -0.34900
N447        N  0.23884598  0.05030179  0.24797651    -0.27000
C448        C  0.23744686  0.03515591  0.25177189    -0.02300
C449        C  0.24568070  0.02626205  0.24109157     0.06300
C450        C  0.25199623  0.03701081  0.23098762     0.04400
H451        H  0.23047080  0.03092484  0.26119922     0.09500
H452        H  0.25911927  0.03461572  0.22100847     0.08400
N453        N  0.72410781  0.27649935  0.40139831    -0.26000
N454        N  0.71943270  0.26337929  0.39475792    -0.33900
C455        C  0.71411604  0.26625276  0.38046823     0.02300
C456        C  0.71560053  0.28192318  0.37755506     0.08300
C457        C  0.72207441  0.28817976  0.39110632    -0.04800
H458        H  0.71103630  0.25729211  0.37212418     0.09000
H459        H  0.72563786  0.30010073  0.39304544     0.10200
Cu460      Cu  0.72651066  0.24165902  0.40151766     0.44200
Cu461      Cu  0.73448293  0.27612498  0.42365728     0.42000
Cu462      Cu  0.75937156  0.24214911  0.42572914     0.43900
N463        N  0.74577942  0.22829327  0.39689963    -0.33400
N464        N  0.75880975  0.22947642  0.40499068    -0.27700
C465        C  0.77053045  0.22336785  0.39655929    -0.03800
C466        C  0.76448307  0.21814398  0.38244514     0.08400
C467        C  0.74874269  0.22145682  0.38321991     0.02200
H468        H  0.78264562  0.22366707  0.40001151     0.09900
H469        H  0.74042873  0.22075733  0.37379809     0.09000
N470        N  0.75346280  0.25561640  0.44509385    -0.34900
N471        N  0.74436962  0.26801165  0.44459539    -0.27000
C472        C  0.74206674  0.27314754  0.45926272    -0.02300
C473        C  0.75001216  0.26346974  0.46951189     0.06300
C474        C  0.75712340  0.25257115  0.45994549     0.04400
H475        H  0.73465211  0.28281954  0.46227748     0.09500
H476        H  0.76434444  0.24295579  0.46348943     0.08400
N477        N  0.74527238  0.29303448  0.60524591    -0.26000
N478        N  0.75844696  0.29468601  0.61305979    -0.33900
C479        C  0.75535933  0.29959053  0.62753072     0.02300
C480        C  0.73942407  0.30095666  0.62910184     0.08300
C481        C  0.73334873  0.29666284  0.61472804    -0.04800
H482        H  0.76388884  0.30014208  0.63678365     0.09000
H483        H  0.72117407  0.29521331  0.61176472     0.10200
Cu484      Cu  0.77859510  0.28358815  0.60655363     0.44200
Cu485      Cu  0.74490856  0.28314488  0.58297785     0.42000
Cu486      Cu  0.77125589  0.25076872  0.58150371     0.43900
N487        N  0.78730391  0.26173573  0.61061205    -0.33400
N488        N  0.78313351  0.24911144  0.60278341    -0.27700
C489        C  0.78665429  0.23653042  0.61144621    -0.03800
C490        C  0.79351297  0.24164739  0.62524083     0.08400
C491        C  0.79367891  0.25764824  0.62416300     0.02200
H492        H  0.78376533  0.22467425  0.60830745     0.09900
H493        H  0.79656956  0.26581223  0.63334546     0.09000
N494        N  0.76008331  0.25961302  0.56169960    -0.34900
N495        N  0.75059079  0.27169698  0.56222767    -0.27000
C496        C  0.74621944  0.27534511  0.54766101    -0.02300
C497        C  0.75320509  0.26503569  0.53734113     0.06300
C498        C  0.76189536  0.25522104  0.54677744     0.04400
H499        H  0.73852216  0.28482587  0.54481558     0.09500
H500        H  0.76943255  0.24589979  0.54303779     0.08400
N501        N  0.39793391  0.73973344  0.72978185    -0.26000
N502        N  0.39024873  0.75258016  0.72647972    -0.33900
C503        C  0.37557687  0.74893432  0.72236426     0.02300
C504        C  0.37376677  0.73296117  0.72297195     0.08300
C505        C  0.38829666  0.72742636  0.72753510    -0.04800
H506        H  0.36660099  0.75740975  0.71998878     0.09000
H507        H  0.39128308  0.71549039  0.73005676     0.10200
Cu508      Cu  0.39786163  0.77455809  0.73267274     0.44200
Cu509      Cu  0.42011190  0.74112510  0.73992624     0.42000
Cu510      Cu  0.41851440  0.77223863  0.76823359     0.43900
N511        N  0.39186859  0.78732707  0.75189408    -0.33400
N512        N  0.39743440  0.78424107  0.76578792    -0.27700
C513        C  0.38653555  0.78810632  0.77636113    -0.03800
C514        C  0.37344208  0.79388709  0.76865317     0.08400
C515        C  0.37767221  0.79358323  0.75317953     0.02200
H516        H  0.38747931  0.78538760  0.78851485     0.09900
H517        H  0.37046820  0.79598564  0.74324466     0.09000
N518        N  0.43926775  0.76094220  0.76215464    -0.34900
N519        N  0.43987843  0.74985364  0.75146546    -0.27000
C520        C  0.45492574  0.74625095  0.74884636    -0.02300
C521        C  0.46432849  0.75542425  0.75838252     0.06300
C522        C  0.45392472  0.76454828  0.76670507     0.04400
H523        H  0.45874031  0.73774292  0.74044363     0.09500
H524        H  0.45682481  0.77367838  0.77488294     0.08400
N525        N  0.60012127  0.76605621  0.78883241    -0.26000
N526        N  0.60861143  0.75326664  0.78858797    -0.33900
C527        C  0.62326947  0.75666462  0.79286441     0.02300
C528        C  0.62426156  0.77235949  0.79607055     0.08300
C529        C  0.60932630  0.77802327  0.79344465    -0.04800
H530        H  0.63297871  0.74871825  0.79165659     0.09000
H531        H  0.60590642  0.79014641  0.79318317     0.10200
Cu532      Cu  0.60295502  0.73408813  0.77551492     0.44200
Cu533      Cu  0.57773844  0.76615771  0.77892148     0.42000
Cu534      Cu  0.57727360  0.74133442  0.74436369     0.43900
N535        N  0.60849785  0.72885730  0.75302587    -0.33400
N536        N  0.59966917  0.73236472  0.74099266    -0.27700
C537        C  0.60845320  0.73139301  0.72805990    -0.03800
C538        C  0.62352703  0.72738370  0.73241976     0.08400
C539        C  0.62302376  0.72586192  0.74827306     0.02200
H540        H  0.60455544  0.73463521  0.71660844     0.09900
H541        H  0.63282562  0.72405903  0.75594792     0.09000
N542        N  0.55720567  0.75091322  0.75433025    -0.34900
N543        N  0.55731995  0.75994886  0.76680566    -0.27000
C544        C  0.54248009  0.76349489  0.77051495    -0.02300
C545        C  0.53244049  0.75636928  0.75990312     0.06300
C546        C  0.54232305  0.74849241  0.74984184     0.04400
H547        H  0.53928587  0.77072549  0.78026412     0.09500
H548        H  0.53897193  0.74109996  0.74023204     0.08400
N549        N  0.75848158  0.39515956  0.20794371    -0.26000
N550        N  0.74575589  0.38657353  0.20649446    -0.33900
C551        C  0.74977787  0.37175765  0.20374412     0.02300
C552        C  0.76584844  0.37073718  0.20377537     0.08300
C553        C  0.77101513  0.38590110  0.20618644    -0.04800
H554        H  0.74158689  0.36216416  0.20370554     0.09000
H555        H  0.78289661  0.38956992  0.20839617     0.10200
Cu556      Cu  0.72468092  0.39257876  0.21603925     0.44200
Cu557      Cu  0.75763079  0.41788370  0.21644462     0.42000
Cu558      Cu  0.72839666  0.42007882  0.24660300     0.43900
N559        N  0.71481598  0.38945091  0.23747460    -0.33400
N560        N  0.71748766  0.39875714  0.24942335    -0.27700
C561        C  0.71403023  0.39111522  0.26255868    -0.03800
C562        C  0.70889594  0.37628596  0.25855993     0.08400
C563        C  0.70951834  0.37575034  0.24257778     0.02200
H564        H  0.71607381  0.39563974  0.27409640     0.09900
H565        H  0.70809845  0.36553430  0.23531822     0.09000
N566        N  0.73961663  0.43936447  0.23754311    -0.34900
N567        N  0.75042838  0.43866394  0.22670392    -0.27000
C568        C  0.75470583  0.45325703  0.22295331    -0.02300
C569        C  0.74602248  0.46361139  0.23175357     0.06300
C570        C  0.73660659  0.45436097  0.24087223     0.04400
H571        H  0.76302891  0.45609395  0.21409820     0.09500
H572        H  0.72811280  0.45820092  0.24920391     0.08400
N573        N  0.73449392  0.59832418  0.25873542    -0.26000
N574        N  0.74770412  0.60562288  0.26190875    -0.33900
C575        C  0.74472138  0.62019764  0.26660849     0.02300
C576        C  0.72881783  0.62232916  0.26664885     0.08300
C577        C  0.72257744  0.60813907  0.26175927    -0.04800
H578        H  0.75357352  0.62888523  0.26912359     0.09000
H579        H  0.71040053  0.60548572  0.25971474     0.10200
Cu580      Cu  0.76925755  0.59747944  0.25579002     0.44200
Cu581      Cu  0.73495777  0.57626835  0.24818100     0.42000
Cu582      Cu  0.76934883  0.57413858  0.22243296     0.43900
N583        N  0.78479567  0.60076583  0.23823233    -0.33400
N584        N  0.78397529  0.59323393  0.22491104    -0.27700
C585        C  0.79127282  0.60170797  0.21404045    -0.03800
C586        C  0.79671808  0.61540672  0.22092669     0.08400
C587        C  0.79247163  0.61415676  0.23629476     0.02200
H588        H  0.79124293  0.59877130  0.20186571     0.09900
H589        H  0.79258135  0.62339383  0.24487472     0.09000
N590        N  0.75495290  0.55547996  0.22766121    -0.34900
N591        N  0.74283284  0.55595028  0.23707985    -0.27000
C592        C  0.73768163  0.54127672  0.23925552    -0.02300
C593        C  0.74707138  0.53112219  0.23089063     0.06300
C594        C  0.75778787  0.54063215  0.22362250     0.04400
H595        H  0.72839143  0.53819707  0.24701473     0.09500
H596        H  0.76729788  0.53706905  0.21632283     0.08400
N597        N  0.74587004  0.71443242  0.39861125    -0.26000
N598        N  0.75888332  0.71232822  0.39085052    -0.33900
C599        C  0.75558807  0.70623301  0.37691606     0.02300
C600        C  0.73962817  0.70419555  0.37560710     0.08300
C601        C  0.73380982  0.70945646  0.38976829    -0.04800
H602        H  0.76404208  0.70541192  0.36774343     0.09000
H603        H  0.72177523  0.71068772  0.39301339     0.10200
Cu604      Cu  0.77932839  0.72367550  0.39585996     0.44200
Cu605      Cu  0.74596168  0.72733899  0.41910942     0.42000
Cu606      Cu  0.77569897  0.75819948  0.41775662     0.43900
N607        N  0.78889506  0.74426828  0.38876992    -0.33400
N608        N  0.78666642  0.75767887  0.39595934    -0.27700
C609        C  0.79035278  0.76926189  0.38607542    -0.03800
C610        C  0.79481728  0.76264144  0.37199453     0.08400
C611        C  0.79381377  0.74680470  0.37428971     0.02200
H612        H  0.78857494  0.78149183  0.38843770     0.09900
H613        H  0.79514649  0.73778179  0.36563957     0.09000
N614        N  0.76351493  0.75182833  0.43794848    -0.34900
N615        N  0.75267374  0.74082771  0.43818766    -0.27000
C616        C  0.74757224  0.73908619  0.45279083    -0.02300
C617        C  0.75552243  0.74941077  0.46240268     0.06300
C618        C  0.76558413  0.75728466  0.45253114     0.04400
H619        H  0.73908205  0.73048856  0.45621917     0.09500
H620        H  0.77384123  0.76627513  0.45570298     0.08400
N621        N  0.77776438  0.76640822  0.59544707    -0.26000
N622        N  0.77897415  0.75350843  0.60354225    -0.33900
C623        C  0.78453890  0.75694810  0.61767913     0.02300
C624        C  0.78695349  0.77284745  0.61871285     0.08300
C625        C  0.78263688  0.77848726  0.60427027    -0.04800
H626        H  0.78470736  0.74878823  0.62712082     0.09000
H627        H  0.78188930  0.79050860  0.60082516     0.10200
Cu628      Cu  0.76678218  0.73349509  0.59840255     0.44200
Cu629      Cu  0.76619182  0.76664793  0.57432266     0.42000
Cu630      Cu  0.73361728  0.73974991  0.57463729     0.43900
N631        N  0.74498437  0.72557479  0.60418930    -0.33400
N632        N  0.73214180  0.72958811  0.59675533    -0.27700
C633        C  0.71985881  0.72704434  0.60622477    -0.03800
C634        C  0.72542401  0.72091270  0.62008947     0.08400
C635        C  0.74135787  0.72018690  0.61824654     0.02200
H636        H  0.70793231  0.72999889  0.60351075     0.09900
H637        H  0.74983663  0.71750689  0.62711777     0.09000
N638        N  0.74273675  0.74955600  0.55420921    -0.34900
N639        N  0.75442924  0.75962128  0.55440854    -0.27000
C640        C  0.75865055  0.76283005  0.53979734    -0.02300
C641        C  0.74935446  0.75428042  0.52965281     0.06300
C642        C  0.73929590  0.74605958  0.53929116     0.04400
H643        H  0.76814174  0.77051421  0.53688149     0.09500
H644        H  0.73070066  0.73752039  0.53577287     0.08400
N645        N  0.73287518  0.41344434  0.72447081    -0.26000
N646        N  0.74662676  0.40747221  0.72106377    -0.33900
C647        C  0.74480179  0.39275796  0.71610019     0.02300
C648        C  0.72916017  0.38902508  0.71640196     0.08300
C649        C  0.72185004  0.40251258  0.72158857    -0.04800
H650        H  0.75434879  0.38489024  0.71385515     0.09000
H651        H  0.70964405  0.40378397  0.72439565     0.10200
Cu652      Cu  0.76757282  0.41602667  0.72912034     0.44200
Cu653      Cu  0.73091032  0.43507303  0.73579187     0.42000
Cu654      Cu  0.76262047  0.43790852  0.76328192     0.43900
N655        N  0.78019241  0.41157130  0.74887058    -0.33400
N656        N  0.77703439  0.41836442  0.76223895    -0.27700
C657        C  0.78250284  0.40933072  0.77375986    -0.03800
C658        C  0.78952814  0.39630607  0.76720490     0.08400
C659        C  0.78787859  0.39824292  0.75142050     0.02200
H660        H  0.78038346  0.41139587  0.78590208     0.09900
H661        H  0.79005159  0.38954674  0.74261531     0.09000
N662        N  0.74799429  0.45657925  0.75796057    -0.34900
N663        N  0.73627569  0.45567892  0.74798027    -0.27000
C664        C  0.73012189  0.47002371  0.74623467    -0.02300
C665        C  0.73847871  0.48051589  0.75542064     0.06300
C666        C  0.74964974  0.47145204  0.76271208     0.04400
H667        H  0.72085063  0.47276309  0.73820874     0.09500
H668        H  0.75864694  0.47543204  0.77060058     0.08400
N669        N  0.75023279  0.61257859  0.79215157    -0.26000
N670        N  0.73828202  0.62167870  0.79532194    -0.33900
C671        C  0.74352814  0.63535135  0.80084296     0.02300
C672        C  0.75959647  0.63513235  0.80090321     0.08300
C673        C  0.76350450  0.62041902  0.79539036    -0.04800
H674        H  0.73629854  0.64557216  0.80221138     0.09000
H675        H  0.77501707  0.61634311  0.79247283     0.10200
Cu676      Cu  0.71703670  0.61925366  0.78452170     0.44200
Cu677      Cu  0.74729489  0.59164063  0.78012037     0.42000
Cu678      Cu  0.71664567  0.59417506  0.75135472     0.43900
N679        N  0.70804369  0.62588374  0.76345871    -0.33400
N680        N  0.70882276  0.61731637  0.75073246    -0.27700
C681        C  0.70594731  0.62656714  0.73845948    -0.03800
C682        C  0.70347997  0.64169341  0.74380902     0.08400
C683        C  0.70478740  0.64066189  0.75973223     0.02200
H684        H  0.70683800  0.62285467  0.72652322     0.09900
H685        H  0.70455491  0.65013460  0.76799120     0.09000
N686        N  0.72709885  0.57305744  0.75774724    -0.34900
N687        N  0.73855061  0.57236480  0.76802948    -0.27000
C688        C  0.74285962  0.55743133  0.76976219    -0.02300
C689        C  0.73369014  0.54810837  0.76019130     0.06300
C690        C  0.72375767  0.55846364  0.75278588     0.04400
H691        H  0.75182885  0.55361182  0.77767274     0.09500
H692        H  0.71490551  0.55562591  0.74427693     0.08400
C693        C  0.70295571  0.71380174  0.68357996     0.87800
C694        C  0.68634229  0.71938733  0.68742212    -0.52500
C695        C  0.68309286  0.71989617  0.70290675     0.10700
C696        C  0.69675176  0.71466044  0.71327903     0.21600
C697        C  0.71386488  0.72440076  0.69316377    -0.53200
C698        C  0.71070088  0.72484993  0.70859407     0.10800
C699        C  0.70365253  0.69777987  0.69169913    -0.52700
C700        C  0.70058075  0.69823158  0.70722812     0.11300
H701        H  0.67770293  0.72217714  0.67865724     0.15900
H702        H  0.69409255  0.71507066  0.72584595     0.01600
H703        H  0.72348634  0.73085173  0.68815008     0.16200
H704        H  0.70550637  0.68677860  0.68588518     0.16000
N705        N  0.78563183  0.28835933  0.90067135    -0.26000
N706        N  0.79009950  0.27543698  0.89365678    -0.33900
C707        C  0.79483958  0.27866248  0.87929863     0.02300
C708        C  0.79294666  0.29435348  0.87669100     0.08300
C709        C  0.78727529  0.30029359  0.89063132    -0.04800
H710        H  0.79733213  0.26986985  0.87065909     0.09000
H711        H  0.78308881  0.31196822  0.89269515     0.10200
Cu712      Cu  0.78152923  0.25390476  0.89915294     0.44200
Cu713      Cu  0.77466447  0.28697277  0.92235958     0.42000
Cu714      Cu  0.74837698  0.25323756  0.92261331     0.43900
N715        N  0.76163458  0.24202598  0.89277332    -0.33400
N716        N  0.74859272  0.24240864  0.90077244    -0.27700
C717        C  0.73697697  0.23649886  0.89182499    -0.03800
C718        C  0.74313581  0.23232209  0.87744932     0.08400
C719        C  0.75879307  0.23612999  0.87862423     0.02200
H720        H  0.72494876  0.23579784  0.89533206     0.09900
H721        H  0.76729418  0.23590067  0.86946925     0.09000
N722        N  0.75520626  0.26561378  0.94260844    -0.34900
N723        N  0.76482118  0.27770759  0.94263248    -0.27000
C724        C  0.76767230  0.28204318  0.95746124    -0.02300
C725        C  0.75938291  0.27232116  0.96728726     0.06300
C726        C  0.75164030  0.26207943  0.95735983     0.04400
H727        H  0.77528902  0.29151526  0.96083022     0.09500
H728        H  0.74436600  0.25238276  0.96063645     0.08400
N729        N  0.74395944  0.22856145  0.09449144    -0.26000
N730        N  0.75694933  0.22589631  0.10221387    -0.33900
C731        C  0.75370590  0.21821953  0.11522539     0.02300
C732        C  0.73781084  0.21575537  0.11600589     0.08300
C733        C  0.73193136  0.22248799  0.10253017    -0.04800
H734        H  0.76210944  0.21646654  0.12443127     0.09000
H735        H  0.71981626  0.22384588  0.09935988     0.10200
Cu736      Cu  0.77691065  0.23855517  0.09914370     0.44200
Cu737      Cu  0.74461855  0.24317576  0.07525407     0.42000
Cu738      Cu  0.77241749  0.27530885  0.08213115     0.43900
N739        N  0.78507048  0.25851406  0.10947169    -0.33400
N740        N  0.78230349  0.27266013  0.10433814    -0.27700
C741        C  0.78582474  0.28293441  0.11582953    -0.03800
C742        C  0.79104881  0.27464422  0.12871857     0.08400
C743        C  0.79024894  0.25924402  0.12408889     0.02200
H744        H  0.78430866  0.29536995  0.11501513     0.09900
H745        H  0.79198848  0.24913011  0.13124323     0.09000
N746        N  0.76297747  0.26950564  0.06020094    -0.34900
N747        N  0.75289501  0.25799219  0.05794017    -0.27000
C748        C  0.74981140  0.25668125  0.04268475    -0.02300
C749        C  0.75828332  0.26784668  0.03475558     0.06300
C750        C  0.76656112  0.27573214  0.04631288     0.04400
H751        H  0.74233760  0.24782983  0.03768261     0.09500
H752        H  0.77465483  0.28522922  0.04475276     0.08400
N753        N  0.90641887  0.76765630  0.27182422    -0.26000
N754        N  0.89936118  0.75414849  0.27381002    -0.33900
C755        C  0.88527248  0.75649422  0.28001779     0.02300
C756        C  0.88306322  0.77228099  0.28192821     0.08300
C757        C  0.89676307  0.77908448  0.27660508    -0.04800
H758        H  0.87645559  0.74752658  0.28107395     0.09000
H759        H  0.89907385  0.79137489  0.27530022     0.10200
Cu760      Cu  0.90502904  0.73456462  0.26139862     0.44200
Cu761      Cu  0.92759395  0.76880106  0.25995520     0.42000
Cu762      Cu  0.92585664  0.74256250  0.22685729     0.43900
N763        N  0.89779981  0.72716172  0.23987281    -0.33400
N764        N  0.90473816  0.73090995  0.22680280    -0.27700
C765        C  0.89493414  0.72793420  0.21489196    -0.03800
C766        C  0.88108887  0.72239547  0.22096485     0.08400
C767        C  0.88338457  0.72195585  0.23676958     0.02200
H768        H  0.89722970  0.73075861  0.20296812     0.09900
H769        H  0.87482528  0.71926409  0.24544734     0.09000
N770        N  0.94624342  0.75285932  0.23478683    -0.34900
N771        N  0.94709671  0.76219724  0.24700110    -0.27000
C772        C  0.96224009  0.76499149  0.25022928    -0.02300
C773        C  0.97132859  0.75701847  0.23952533     0.06300
C774        C  0.96070705  0.74953327  0.22990680     0.04400
H775        H  0.96629598  0.77193326  0.25991554     0.09500
H776        H  0.96326612  0.74142741  0.22065620     0.08400
N777        N  0.10426353  0.73488728  0.20899964    -0.26000
N778        N  0.11219025  0.74726915  0.20462480    -0.33900
C779        C  0.12651620  0.74299290  0.20024164     0.02300
C780        C  0.12801189  0.72710451  0.20221652     0.08300
C781        C  0.11351518  0.72228086  0.20757853    -0.04800
H782        H  0.13563725  0.75116283  0.19739812     0.09000
H783        H  0.11046221  0.71078970  0.21160709     0.10200
Cu784      Cu  0.10702948  0.76933283  0.21216189     0.44200
Cu785      Cu  0.08262302  0.73728990  0.21974382     0.42000
Cu786      Cu  0.08383120  0.76962144  0.24663839     0.43900
N787        N  0.11389269  0.77991633  0.23248615    -0.33400
N788        N  0.10589430  0.77942729  0.24550622    -0.27700
C789        C  0.11543062  0.78326322  0.25737080    -0.03800
C790        C  0.13015423  0.78595322  0.25144599     0.08400
C791        C  0.12873660  0.78376432  0.23567635     0.02200
H792        H  0.11231951  0.78253301  0.26942655     0.09900
H793        H  0.13806398  0.78341711  0.22737329     0.09000
N794        N  0.06353521  0.75757824  0.24118117    -0.34900
N795        N  0.06292204  0.74607923  0.23093144    -0.27000
C796        C  0.04789032  0.74209132  0.22857875    -0.02300
C797        C  0.03865052  0.75139995  0.23794830     0.06300
C798        C  0.04899597  0.76103001  0.24580695     0.04400
H799        H  0.04397063  0.73330889  0.22042844     0.09500
H800        H  0.04611783  0.77043417  0.25362893     0.08400
N801        N  0.27108463  0.90256811  0.76761531    -0.26000
N802        N  0.27423591  0.89602231  0.75412793    -0.33900
C803        C  0.27943369  0.88154586  0.75633490     0.02300
C804        C  0.27939145  0.87852458  0.77198664     0.08300
C805        C  0.27425322  0.89223373  0.77891850    -0.04800
H806        H  0.28127154  0.87322962  0.74709539     0.09000
H807        H  0.27148314  0.89395488  0.79099821     0.10200
Cu808      Cu  0.26380679  0.90250663  0.73386614     0.44200
Cu809      Cu  0.25925583  0.92376052  0.76833035     0.42000
Cu810      Cu  0.22860325  0.92290433  0.73894902     0.43900
N811        N  0.24280309  0.89416642  0.72590373    -0.33400
N812        N  0.22932645  0.90110436  0.72834302    -0.27700
C813        C  0.21773075  0.89102088  0.72480312    -0.03800
C814        C  0.22441133  0.87700468  0.72033158     0.08400
C815        C  0.24027267  0.87950002  0.72114074     0.02200
H816        H  0.20545859  0.89336248  0.72631888     0.09900
H817        H  0.24935810  0.87100792  0.71923982     0.09000
N818        N  0.23609847  0.94313684  0.75020243    -0.34900
N819        N  0.24723613  0.94349065  0.76084831    -0.27000
C820        C  0.25022939  0.95842742  0.76469197    -0.02300
C821        C  0.24055330  0.96799806  0.75605799     0.06300
C822        C  0.23173601  0.95781057  0.74703337     0.04400
H823        H  0.25930723  0.96204875  0.77266301     0.09500
H824        H  0.22295939  0.96079404  0.73857173     0.08400
N825        N  0.23315854  0.10089506  0.72349849    -0.26000
N826        N  0.24686971  0.10727139  0.72069132    -0.33900
C827        C  0.24478003  0.12131684  0.71432408     0.02300
C828        C  0.22897593  0.12411116  0.71317883     0.08300
C829        C  0.22190164  0.11087326  0.71910060    -0.04800
H830        H  0.25401580  0.12968907  0.71258137     0.09000
H831        H  0.20962002  0.10913100  0.72110721     0.10200
Cu832      Cu  0.26703661  0.10056922  0.73179323     0.44200
Cu833      Cu  0.23128818  0.08025714  0.73585269     0.42000
Cu834      Cu  0.26002712  0.08027037  0.76665870     0.43900
N835        N  0.27671094  0.10716421  0.75268744    -0.33400
N836        N  0.27265720  0.10105587  0.76606232    -0.27700
C837        C  0.27589445  0.11144878  0.77746946    -0.03800
C838        C  0.28207678  0.12478555  0.77077249     0.08400
C839        C  0.28270769  0.12138088  0.75511933     0.02200
H840        H  0.27255957  0.11004582  0.78940401     0.09900
H841        H  0.28567648  0.12927404  0.74592255     0.09000
N842        N  0.24770932  0.06043377  0.75956041    -0.34900
N843        N  0.23712650  0.06046315  0.74838497    -0.27000
C844        C  0.23247644  0.04572897  0.74555380    -0.02300
C845        C  0.24057753  0.03582318  0.75533801     0.06300
C846        C  0.25009185  0.04566355  0.76407450     0.04400
H847        H  0.22410275  0.04250440  0.73671538     0.09500
H848        H  0.25878090  0.04230416  0.77249424     0.08400
N849        N  0.26400771  0.77008291  0.89958988    -0.26000
N850        N  0.25010965  0.77174910  0.89330074    -0.33900
C851        C  0.25160738  0.77806503  0.87927212     0.02300
C852        C  0.26726961  0.78083607  0.87643497     0.08300
C853        C  0.27480302  0.77568518  0.88978870    -0.04800
H854        H  0.24209613  0.77862977  0.87108259     0.09000
H855        H  0.28717876  0.77499694  0.89189487     0.10200
Cu856      Cu  0.23075627  0.75956694  0.90022077     0.44200
Cu857      Cu  0.26665988  0.75671582  0.91926229     0.42000
Cu858      Cu  0.24084004  0.72323521  0.91572391     0.43900
N859        N  0.22458008  0.73893922  0.88982563    -0.33400
N860        N  0.23007663  0.72531716  0.89411638    -0.27700
C861        C  0.22892806  0.71533900  0.88198570    -0.03800
C862        C  0.22256034  0.72328701  0.86944428     0.08400
C863        C  0.21971993  0.73809634  0.87511355     0.02200
H864        H  0.23340360  0.70360934  0.88198299     0.09900
H865        H  0.21549099  0.74801592  0.86877676     0.09000
N866        N  0.25037167  0.73099286  0.93674967    -0.34900
N867        N  0.26005553  0.74297532  0.93776277    -0.27000
C868        C  0.26307986  0.74605693  0.95273983    -0.02300
C869        C  0.25487973  0.73562108  0.96173551     0.06300
C870        C  0.24688990  0.72623310  0.95118735     0.04400
H871        H  0.27003441  0.75578079  0.95678164     0.09500
H872        H  0.23888190  0.71690448  0.95378938     0.08400
N873        N  0.23805228  0.71503226  0.09609591    -0.26000
N874        N  0.25114491  0.71291957  0.10387781    -0.33900
C875        C  0.24783361  0.70905535  0.11850677     0.02300
C876        C  0.23185023  0.70860881  0.12014561     0.08300
C877        C  0.22593981  0.71228187  0.10562636    -0.04800
H878        H  0.25646295  0.70779478  0.12758168     0.09000
H879        H  0.21382581  0.71396852  0.10256896     0.10200
Cu880      Cu  0.27243514  0.72106300  0.09673278     0.44200
Cu881      Cu  0.23847077  0.72439116  0.07391111     0.42000
Cu882      Cu  0.26839106  0.75428950  0.07312659     0.43900
N883        N  0.28146525  0.74238469  0.10271853    -0.33400
N884        N  0.27853248  0.75528829  0.09506204    -0.27700
C885        C  0.28082090  0.76755394  0.10468347    -0.03800
C886        C  0.28512042  0.76191289  0.11913253     0.08400
C887        C  0.28566124  0.74594623  0.11726315     0.02200
H888        H  0.27818278  0.77946326  0.10180527     0.09900
H889        H  0.28750861  0.73739608  0.12615374     0.09000
N890        N  0.25755007  0.74534538  0.05330517    -0.34900
N891        N  0.24662141  0.73446236  0.05357959    -0.27000
C892        C  0.24302864  0.73028580  0.03893026    -0.02300
C893        C  0.25216532  0.73889007  0.02888043     0.06300
C894        C  0.26119254  0.74835713  0.03848148     0.04400
H895        H  0.23490960  0.72112074  0.03589253     0.09500
H896        H  0.26995235  0.75665029  0.03502479     0.08400
N897        N  0.89961061  0.26571874  0.79108032    -0.26000
N898        N  0.89087040  0.25347071  0.79415711    -0.33900
C899        C  0.87629613  0.25808207  0.79728576     0.02300
C900        C  0.87546329  0.27409632  0.79580688     0.08300
C901        C  0.89062975  0.27857036  0.79207699    -0.04800
H902        H  0.86677160  0.25009815  0.79909646     0.09000
H903        H  0.89449821  0.29008585  0.78888981     0.10200
Cu904      Cu  0.89607658  0.23135414  0.78666453     0.44200
Cu905      Cu  0.92231722  0.26310299  0.78249810     0.42000
Cu906      Cu  0.92163847  0.23196825  0.75425518     0.43900
N907        N  0.89072819  0.22050585  0.76599784    -0.33400
N908        N  0.89932449  0.22169682  0.75339911    -0.27700
C909        C  0.89036389  0.21784160  0.74102383    -0.03800
C910        C  0.87542761  0.21429833  0.74617168     0.08400
C911        C  0.87622651  0.21607561  0.76205095     0.02200
H912        H  0.89394835  0.21911510  0.72908335     0.09900
H913        H  0.86650161  0.21594267  0.76997999     0.09000
N914        N  0.94226898  0.24351786  0.76111980    -0.34900
N915        N  0.94257889  0.25460290  0.77183751    -0.27000
C916        C  0.95754017  0.25881922  0.77450657    -0.02300
C917        C  0.96719106  0.25012514  0.76489138     0.06300
C918        C  0.95701054  0.24059101  0.75655315     0.04400
H919        H  0.96112572  0.26759548  0.78279532     0.09500
H920        H  0.96014180  0.23179453  0.74814009     0.08400
N921        N  0.10273243  0.22864761  0.74253425    -0.26000
N922        N  0.10997137  0.22338877  0.75495535    -0.33900
C923        C  0.12444475  0.21904958  0.75124955     0.02300
C924        C  0.12684008  0.22186918  0.73573288     0.08300
C925        C  0.11266765  0.22774642  0.73042075    -0.04800
H926        H  0.13299524  0.21529422  0.75963182     0.09000
H927        H  0.11018295  0.23208644  0.71896649     0.10200
Cu928      Cu  0.10378237  0.22869984  0.77726489     0.44200
Cu929      Cu  0.08054057  0.23874525  0.74461856     0.42000
Cu930      Cu  0.08100171  0.26219748  0.77962037     0.43900
N931        N  0.11114204  0.24802679  0.78939498    -0.33400
N932        N  0.10342442  0.26128169  0.78933619    -0.27700
C933        C  0.11330723  0.27283101  0.79361334    -0.03800
C934        C  0.12798176  0.26644966  0.79618838     0.08400
C935        C  0.12602165  0.25069088  0.79349475     0.02200
H936        H  0.11048104  0.28508859  0.79327666     0.09900
H937        H  0.13509803  0.24202518  0.79291209     0.09000
N938        N  0.06043133  0.25613588  0.76771951    -0.34900
N939        N  0.06017000  0.24760046  0.75490905    -0.27000
C940        C  0.04516738  0.24480090  0.75090781    -0.02300
C941        C  0.03540596  0.25185010  0.76172893     0.06300
C942        C  0.04565529  0.25896291  0.77214857     0.04400
H943        H  0.04166661  0.23757585  0.74122112     0.09500
H944        H  0.04265061  0.26560377  0.78236388     0.08400
N945        N  0.71952885  0.77066466  0.90246365    -0.26000
N946        N  0.71675486  0.75787567  0.89433687    -0.33900
C947        C  0.71161953  0.76171050  0.88021323     0.02300
C948        C  0.71113937  0.77772302  0.87920186     0.08300
C949        C  0.71624578  0.78309792  0.89357607    -0.04800
H950        H  0.71003923  0.75346445  0.87080290     0.09000
H951        H  0.71822686  0.79505457  0.89701674     0.10200
Cu952      Cu  0.72603832  0.73655350  0.89955579     0.44200
Cu953      Cu  0.73011726  0.76961423  0.92415149     0.42000
Cu954      Cu  0.75964736  0.73944924  0.92309987     0.43900
N955        N  0.74691976  0.72682241  0.89335894    -0.33400
N956        N  0.75997944  0.72904954  0.90121866    -0.27700
C957        C  0.77212088  0.72602769  0.89179636    -0.03800
C958        C  0.76627803  0.72197013  0.87728482     0.08400
C959        C  0.75028551  0.72244602  0.87883862     0.02200
H960        H  0.78419727  0.72815749  0.89479292     0.09900
H961        H  0.74173377  0.72136363  0.86966278     0.09000
N962        N  0.75220413  0.75034941  0.94342082    -0.34900
N963        N  0.74147675  0.76135972  0.94380000    -0.27000
C964        C  0.73852375  0.76511979  0.95865963    -0.02300
C965        C  0.74778625  0.75600815  0.96815614     0.06300
C966        C  0.75631836  0.74680106  0.95803699     0.04400
H967        H  0.72981024  0.77339654  0.96226005     0.09500
H968        H  0.76475077  0.73802032  0.96103507     0.08400
N969        N  0.73964063  0.78241847  0.10288708    -0.26000
N970        N  0.75259022  0.78410649  0.11107133    -0.33900
C971        C  0.74907523  0.78940334  0.12528179     0.02300
C972        C  0.73311832  0.79094166  0.12627868     0.08300
C973        C  0.72744762  0.78637169  0.11186602    -0.04800
H974        H  0.75728868  0.79005139  0.13481326     0.09000
H975        H  0.71535936  0.78488586  0.10857643     0.10200
Cu976      Cu  0.77296482  0.77277298  0.10568095     0.44200
Cu977      Cu  0.73961769  0.77212112  0.08094174     0.42000
Cu978      Cu  0.76808487  0.74130265  0.07874545     0.43900
N979        N  0.78330094  0.75137450  0.10841099    -0.33400
N980        N  0.78029384  0.73919015  0.09946263    -0.27700
C981        C  0.78491495  0.72621313  0.10684939    -0.03800
C982        C  0.79123273  0.73057644  0.12106024     0.08400
C983        C  0.79002338  0.74658079  0.12156318     0.02200
H984        H  0.78302625  0.71450213  0.10258761     0.09900
H985        H  0.79224047  0.75403214  0.13150256     0.09000
N986        N  0.75595878  0.74954183  0.05959394    -0.34900
N987        N  0.74560836  0.76087667  0.06032519    -0.27000
C988        C  0.74090441  0.76434765  0.04585558    -0.02300
C989        C  0.74867944  0.75473947  0.03547031     0.06300
C990        C  0.75809403  0.74548983  0.04467687     0.04400
H991        H  0.73264445  0.77337563  0.04313347     0.09500
H992        H  0.76645624  0.73696797  0.04081355     0.08400
N993        N  0.72682835  0.91205669  0.77314800    -0.26000
N994        N  0.72178153  0.90586695  0.76003081    -0.33900
C995        C  0.71371290  0.89286597  0.76299166     0.02300
C996        C  0.71367146  0.89047100  0.77879932     0.08300
C997        C  0.72212474  0.90295489  0.78494416    -0.04800
H998        H  0.71001103  0.88466277  0.75416565     0.09000
H999        H  0.72550322  0.90469724  0.79688641     0.10200
Cu1000     Cu  0.73181407  0.91059666  0.73906762     0.44200
Cu1001     Cu  0.74198091  0.93112420  0.77277991     0.42000
Cu1002     Cu  0.76873318  0.92973446  0.74005709     0.43900
N1003       N  0.75090890  0.90259680  0.72723216    -0.33400
N1004       N  0.76503840  0.90861508  0.72846641    -0.27700
C1005       C  0.77535012  0.89825600  0.72271641    -0.03800
C1006       C  0.76717357  0.88512757  0.71767935     0.08400
C1007       C  0.75175294  0.88841190  0.72077935     0.02200
H1008       H  0.78783141  0.89989814  0.72279626     0.09900
H1009       H  0.74198707  0.88049504  0.71982562     0.09000
N1010       N  0.76462299  0.94982394  0.75320764    -0.34900
N1011       N  0.75495007  0.95019568  0.76508922    -0.27000
C1012       C  0.75340750  0.96502611  0.76995284    -0.02300
C1013       C  0.76247068  0.97456946  0.76069658     0.06300
C1014       C  0.76950527  0.96445304  0.75025722     0.04400
H1015       H  0.74577599  0.96861460  0.77917028     0.09500
H1016       H  0.77678994  0.96758365  0.74062345     0.08400
N1017       N  0.77041476  0.10815541  0.72850849    -0.26000
N1018       N  0.75664146  0.11464762  0.72650348    -0.33900
C1019       C  0.75846728  0.12888780  0.72060747     0.02300
C1020       C  0.77417942  0.13180267  0.71868232     0.08300
C1021       C  0.78149532  0.11830384  0.72382111    -0.04800
H1022       H  0.74908072  0.13714715  0.71945896     0.09000
H1023       H  0.79386781  0.11631672  0.72482965     0.10200
Cu1024     Cu  0.73648000  0.10754132  0.73709251     0.44200
Cu1025     Cu  0.77234368  0.08684133  0.73996473     0.42000
Cu1026     Cu  0.74332329  0.08643368  0.77085398     0.43900
N1027       N  0.72520757  0.11262324  0.75741647    -0.33400
N1028       N  0.72894161  0.10592758  0.77060955    -0.27700
C1029       C  0.72402322  0.11503678  0.78237840    -0.03800
C1030       C  0.71687608  0.12811973  0.77617558     0.08400
C1031       C  0.71779719  0.12603682  0.76032413     0.02200
H1032       H  0.72661867  0.11295830  0.79442771     0.09900
H1033       H  0.71532099  0.13467441  0.75161681     0.09000
N1034       N  0.75623232  0.06704645  0.76403007    -0.34900
N1035       N  0.76659165  0.06698061  0.75273282    -0.27000
C1036       C  0.77117713  0.05217646  0.75013787    -0.02300
C1037       C  0.76326235  0.04242145  0.76022658     0.06300
C1038       C  0.75399529  0.05237332  0.76890655     0.04400
H1039       H  0.77894518  0.04870516  0.74098520     0.09500
H1040       H  0.74580823  0.04920151  0.77776336     0.08400
N1041       N  0.89978242  0.73333570  0.76790355    -0.26000
N1042       N  0.89137564  0.73083129  0.75529764    -0.33900
C1043       C  0.87871980  0.72249320  0.75887592     0.02300
C1044       C  0.87883292  0.71976456  0.77459496     0.08300
C1045       C  0.89243260  0.72680757  0.78002728    -0.04800
H1046       H  0.86893354  0.72075618  0.75110451     0.09000
H1047       H  0.89596749  0.72826585  0.79197245     0.10200
Cu1048     Cu  0.89232491  0.74513739  0.73647830     0.44200
Cu1049     Cu  0.91911261  0.74802907  0.76726386     0.42000
Cu1050     Cu  0.91538929  0.77932741  0.73878207     0.43900
N1051       N  0.88423500  0.76654328  0.72981972    -0.33400
N1052       N  0.89233255  0.77959440  0.73098220    -0.27700
C1053       C  0.88273807  0.79165480  0.72803126    -0.03800
C1054       C  0.86786830  0.78575660  0.72530303     0.08400
C1055       C  0.86934746  0.76983362  0.72648122     0.02200
H1056       H  0.88613602  0.80377712  0.72855285     0.09900
H1057       H  0.86014919  0.76123820  0.72547106     0.09000
N1058       N  0.93651987  0.77241443  0.74867502    -0.34900
N1059       N  0.93769434  0.76139085  0.75923607    -0.27000
C1060       C  0.95283607  0.75924989  0.76269332    -0.02300
C1061       C  0.96173026  0.76933402  0.75388691     0.06300
C1062       C  0.95094505  0.77749244  0.74510462     0.04400
H1063       H  0.95707093  0.75049066  0.77053611     0.09500
H1064       H  0.95336915  0.78635836  0.73666146     0.08400
N1065       N  0.09794456  0.79168998  0.73555914    -0.26000
N1066       N  0.10687372  0.79348782  0.74793026    -0.33900
C1067       C  0.12138261  0.79721293  0.74355953     0.02300
C1068       C  0.12184075  0.79771424  0.72758495     0.08300
C1069       C  0.10670496  0.79414904  0.72284425    -0.04800
H1070       H  0.13127081  0.79776384  0.75136025     0.09000
H1071       H  0.10260394  0.79260929  0.71107959     0.10200
Cu1072     Cu  0.10124320  0.78456297  0.76918249     0.44200
Cu1073     Cu  0.07509469  0.78340570  0.73770402     0.42000
Cu1074     Cu  0.07377977  0.75374522  0.76784838     0.43900
N1075       N  0.10480665  0.76366455  0.77995935    -0.33400
N1076       N  0.09559655  0.75143929  0.77828453    -0.27700
C1077       C  0.10357745  0.73860175  0.78247955    -0.03800
C1078       C  0.11854860  0.74312800  0.78697221     0.08400
C1079       C  0.11873958  0.75909248  0.78519042     0.02200
H1080       H  0.09914026  0.72686979  0.78143234     0.09900
H1081       H  0.12882736  0.76663564  0.78577275     0.09000
N1082       N  0.05404170  0.76326386  0.75739894    -0.34900
N1083       N  0.05441092  0.77402555  0.74652093    -0.27000
C1084       C  0.03966180  0.77819629  0.74305950    -0.02300
C1085       C  0.02949649  0.76971349  0.75224098     0.06300
C1086       C  0.03910858  0.76036179  0.76114374     0.04400
H1087       H  0.03662225  0.78707549  0.73482238     0.09500
H1088       H  0.03555686  0.75205792  0.76976033     0.08400
C1089       C  0.81667963  0.70978769  0.79869994     0.87800
C1090       C  0.80914557  0.69361774  0.79729088    -0.52500
C1091       C  0.79349051  0.69336063  0.79985585     0.10700
C1092       C  0.78674148  0.70946649  0.80414069     0.21600
C1093       C  0.80706637  0.72018788  0.78794907    -0.53200
C1094       C  0.79138612  0.72054940  0.79083717     0.10800
C1095       C  0.81231505  0.71484015  0.81530076    -0.52700
C1096       C  0.79666173  0.71469020  0.81812374     0.11300
H1097       H  0.81573637  0.68298522  0.79570462     0.15900
H1098       H  0.77416107  0.70913399  0.80682447     0.01600
H1099       H  0.81250516  0.72656430  0.77862014     0.16200
H1100       H  0.82077268  0.71749599  0.82431291     0.16000
C1101       C  0.79199762  0.80244672  0.67978145     0.87800
C1102       C  0.80858459  0.80237809  0.68654619    -0.52500
C1103       C  0.80957715  0.80661964  0.70176841     0.10700
C1104       C  0.79378103  0.81116916  0.70889385     0.21600
C1105       C  0.78232462  0.79244676  0.69089277    -0.53200
C1106       C  0.78319089  0.79696077  0.70603823     0.10800
C1107       C  0.78664446  0.81928457  0.68281822    -0.52700
C1108       C  0.78737210  0.82381730  0.69802795     0.11300
H1109       H  0.81869629  0.79864470  0.67999727     0.15900
H1110       H  0.79450191  0.81469684  0.72126859     0.01600
H1111       H  0.77542831  0.78250069  0.68707269     0.16200
H1112       H  0.78356010  0.82752132  0.67393929     0.16000
C1113       C  0.70073176  0.82714769  0.79962529     0.87800
C1114       C  0.70404308  0.82267526  0.81660388    -0.52500
C1115       C  0.70303465  0.80702274  0.81948020     0.10700
C1116       C  0.69864813  0.79726741  0.80499024     0.21600
C1117       C  0.71192605  0.81705833  0.79002491    -0.53200
C1118       C  0.71097582  0.80145200  0.79279147     0.10800
C1119       C  0.68436350  0.82014987  0.79678166    -0.52700
C1120       C  0.68333932  0.80459001  0.79933484     0.11300
H1121       H  0.70610856  0.83121645  0.82569619     0.15900
H1122       H  0.69784194  0.78458424  0.80709863     0.01600
H1123       H  0.71990547  0.82193728  0.78161121     0.16200
H1124       H  0.67398861  0.82687061  0.79437907     0.16000
N1125       N  0.76760723  0.90136537  0.28039604    -0.26000
N1126       N  0.75428238  0.89389304  0.28201434    -0.33900
C1127       C  0.75705593  0.87957785  0.28739702     0.02300
C1128       C  0.77297256  0.87775698  0.28936992     0.08300
C1129       C  0.77931310  0.89197140  0.28490630    -0.04800
H1130       H  0.74830286  0.87052818  0.28776176     0.09000
H1131       H  0.79149222  0.89487833  0.28382788     0.10200
Cu1132     Cu  0.73429083  0.89996018  0.27041295     0.44200
Cu1133     Cu  0.76853688  0.92213682  0.26827936     0.42000
Cu1134     Cu  0.74268617  0.91928448  0.23508236     0.43900
N1135       N  0.72680285  0.89172748  0.24930495    -0.33400
N1136       N  0.73135758  0.89739177  0.23589263    -0.27700
C1137       C  0.72872822  0.88638897  0.22483921    -0.03800
C1138       C  0.72241271  0.87318351  0.23185425     0.08400
C1139       C  0.72120513  0.87727830  0.24730080     0.02200
H1140       H  0.73209800  0.88750207  0.21289707     0.09900
H1141       H  0.71757348  0.86995336  0.25670263     0.09000
N1142       N  0.75344168  0.94034830  0.24235491    -0.34900
N1143       N  0.76290163  0.94106418  0.25448203    -0.27000
C1144       C  0.76701217  0.95596163  0.25715195    -0.02300
C1145       C  0.75988433  0.96536348  0.24624419     0.06300
C1146       C  0.75131616  0.95496988  0.23703252     0.04400
H1147       H  0.77406174  0.95972605  0.26688487     0.09500
H1148       H  0.74384054  0.95783149  0.22737802     0.08400
N1149       N  0.74520876  0.10197363  0.22720898    -0.26000
N1150       N  0.75773895  0.11079920  0.22577332    -0.33900
C1151       C  0.75357215  0.12493543  0.22081903     0.02300
C1152       C  0.73757784  0.12526514  0.21897871     0.08300
C1153       C  0.73260309  0.11038273  0.22297387    -0.04800
H1154       H  0.76158835  0.13458836  0.21950981     0.09000
H1155       H  0.72068377  0.10631408  0.22365064     0.10200
Cu1156     Cu  0.77924878  0.10535023  0.23486636     0.44200
Cu1157     Cu  0.74707314  0.07966398  0.23672082     0.42000
Cu1158     Cu  0.77898794  0.07771046  0.26502738     0.43900
N1159       N  0.79216803  0.10828976  0.25475974    -0.33400
N1160       N  0.79046704  0.09930391  0.26697891    -0.27700
C1161       C  0.79493594  0.10748312  0.27967770    -0.03800
C1162       C  0.79980895  0.12223015  0.27506505     0.08400
C1163       C  0.79800216  0.12212003  0.25919163     0.02200
H1164       H  0.79332340  0.10358899  0.29142619     0.09900
H1165       H  0.79839692  0.13221983  0.25176961     0.09000
N1166       N  0.76711234  0.05804936  0.25620230    -0.34900
N1167       N  0.75570653  0.05881337  0.24587920    -0.27000
C1168       C  0.75163688  0.04424547  0.24154134    -0.02300
C1169       C  0.76083340  0.03357774  0.24946733     0.06300
C1170       C  0.77045701  0.04293779  0.25873655     0.04400
H1171       H  0.74304550  0.04174013  0.23269792     0.09500
H1172       H  0.77939885  0.03915592  0.26665706     0.08400
C1173       C  0.68465923  0.79141155  0.20661942     0.87800
C1174       C  0.68906606  0.79078086  0.18944895    -0.52500
C1175       C  0.70419128  0.79477925  0.18645400     0.10700
C1176       C  0.71366139  0.79924080  0.20106381     0.21600
C1177       C  0.69690194  0.78120184  0.21482166    -0.53200
C1178       C  0.71205674  0.78499157  0.21168906     0.10800
C1179       C  0.68910950  0.80797942  0.21207815    -0.52700
C1180       C  0.70410062  0.81217957  0.20896824     0.11300
H1181       H  0.68083845  0.78743272  0.18042381     0.15900
H1182       H  0.72594414  0.80249408  0.19871352     0.01600
H1183       H  0.69401934  0.77197418  0.22281653     0.16200
H1184       H  0.68136567  0.81563493  0.21843280     0.16000
C1185       C  0.20132749  0.80003241  0.67551271     0.87800
C1186       C  0.20426870  0.81660247  0.68175741    -0.52500
C1187       C  0.20212277  0.81834252  0.69725272     0.10700
C1188       C  0.19649980  0.80346011  0.70525113     0.21600
C1189       C  0.21110999  0.78932027  0.68582052    -0.53200
C1190       C  0.20874469  0.79105121  0.70129336     0.10800
C1191       C  0.18423214  0.79692561  0.68038823    -0.52700
C1192       C  0.18159653  0.79895048  0.69603805     0.11300
H1193       H  0.20805264  0.82618586  0.67453334     0.15900
H1194       H  0.19489456  0.80487520  0.71791228     0.01600
H1195       H  0.21947800  0.78108852  0.68115007     0.16200
H1196       H  0.17479494  0.79498181  0.67225612     0.16000
C1197       C  0.80259355  0.21514624  0.68682401     0.87800
C1198       C  0.79729445  0.19829955  0.68934166    -0.52500
C1199       C  0.79659176  0.19386899  0.70445543     0.10700
C1200       C  0.80177215  0.20676417  0.71597609     0.21600
C1201       C  0.79194706  0.22510517  0.69704981    -0.53200
C1202       C  0.79107129  0.22081889  0.71227535     0.10800
C1203       C  0.81859088  0.21565081  0.69502170    -0.52700
C1204       C  0.81819349  0.21151404  0.71026354     0.11300
H1205       H  0.79469292  0.19027888  0.67990397     0.15900
H1206       H  0.80147505  0.20291441  0.72818663     0.01600
H1207       H  0.78579101  0.23505548  0.69240266     0.16200
H1208       H  0.82950568  0.21836209  0.68938842     0.16000
C1209       C  0.70796665  0.19120724  0.80039664     0.87800
C1210       C  0.69151599  0.19829642  0.80031011    -0.52500
C1211       C  0.69104992  0.21389924  0.80349691     0.10700
C1212       C  0.70728749  0.22103569  0.80709321     0.21600
C1213       C  0.71752295  0.20142367  0.78942129    -0.53200
C1214       C  0.71731309  0.21692702  0.79285717     0.10800
C1215       C  0.71397806  0.19531603  0.81674897    -0.52700
C1216       C  0.71394174  0.21085248  0.82020908     0.11300
H1217       H  0.68101374  0.19167550  0.79782304     0.15900
H1218       H  0.70710190  0.23367293  0.80986082     0.01600
H1219       H  0.72407922  0.19671112  0.77974288     0.16200
H1220       H  0.71777179  0.18679000  0.82514150     0.16000
C1221       C  0.17818437  0.71071641  0.79243473     0.87800
C1222       C  0.18606646  0.71184376  0.80838712    -0.52500
C1223       C  0.20108333  0.70684217  0.80877772     0.10700
C1224       C  0.20695521  0.70041885  0.79312828     0.21600
C1225       C  0.18930781  0.71904722  0.78130161    -0.53200
C1226       C  0.20430601  0.71379432  0.78159607     0.10800
C1227       C  0.17972458  0.69334532  0.78842317    -0.52700
C1228       C  0.19471470  0.68793501  0.78834170     0.11300
H1229       H  0.18039490  0.71647463  0.81863610     0.15900
H1230       H  0.21917296  0.69622371  0.79338304     0.01600
H1231       H  0.18562484  0.72855001  0.77392074     0.16200
H1232       H  0.16994318  0.68561188  0.78636227     0.16000
C1233       C  0.80518796  0.67857478  0.19800462     0.87800
C1234       C  0.82144468  0.68547825  0.20058831    -0.52500
C1235       C  0.82239307  0.70109265  0.19837131     0.10700
C1236       C  0.80691630  0.70856388  0.19319894     0.21600
C1237       C  0.79446763  0.68847548  0.20828779    -0.53200
C1238       C  0.79480375  0.70424446  0.20574337     0.10800
C1239       C  0.80127388  0.68336419  0.18125481    -0.52700
C1240       C  0.80219863  0.69901726  0.17872099     0.11300
H1241       H  0.83142135  0.67861697  0.20418114     0.15900
H1242       H  0.80798105  0.72109034  0.19075295     0.01600
H1243       H  0.78769914  0.68307946  0.21733516     0.16200
H1244       H  0.79953096  0.67539420  0.17168560     0.16000
C1245       C  0.79991043  0.81539414  0.29541318     0.87800
C1246       C  0.81689804  0.81164551  0.29098527    -0.52500
C1247       C  0.82067013  0.79618244  0.29188289     0.10700
C1248       C  0.80694608  0.78582679  0.29729797     0.21600
C1249       C  0.78990330  0.80464404  0.28510460    -0.53200
C1250       C  0.79338013  0.78918835  0.28601711     0.10800
C1251       C  0.79862840  0.80866102  0.31181742    -0.52700
C1252       C  0.80208653  0.79324402  0.31285594     0.11300
H1253       H  0.82576127  0.82033839  0.28896131     0.15900
H1254       H  0.80969491  0.77326493  0.29816673     0.01600
H1255       H  0.78073847  0.80903498  0.27761797     0.16200
H1256       H  0.79519876  0.81552420  0.32183741     0.16000
C1257       C  0.29035169  0.79533993  0.81414358     0.87800
C1258       C  0.28728938  0.81256364  0.81060839    -0.52500
C1259       C  0.28959806  0.81661845  0.79561650     0.10700
C1260       C  0.29532635  0.80312392  0.78531566     0.21600
C1261       C  0.28056398  0.78615404  0.80227159    -0.53200
C1262       C  0.28300260  0.79005959  0.78721626     0.10800
C1263       C  0.30732323  0.79287779  0.80873628    -0.52700
C1264       C  0.31022852  0.79739757  0.79378143     0.11300
H1265       H  0.28323355  0.82082987  0.81925745     0.15900
H1266       H  0.29695768  0.80680957  0.77319376     0.01600
H1267       H  0.27221680  0.77725582  0.80558436     0.16200
H1268       H  0.31647831  0.78820860  0.81582548     0.16000
C1269       C  0.80160581  0.33396817  0.79157976     0.87800
C1270       C  0.81790369  0.32638245  0.79016579    -0.52500
C1271       C  0.81855404  0.31121996  0.79495077     0.10700
C1272       C  0.80276987  0.30504288  0.80082752     0.21600
C1273       C  0.79056543  0.32287272  0.78277730    -0.53200
C1274       C  0.79117115  0.30779018  0.78744509     0.10800
C1275       C  0.79772121  0.33174919  0.80885016    -0.52700
C1276       C  0.79821655  0.31667896  0.81375442     0.11300
H1277       H  0.82826237  0.33238535  0.78639486     0.15900
H1278       H  0.80319218  0.29281619  0.80479769     0.01600
H1279       H  0.78305278  0.32663056  0.77337067     0.16200
H1280       H  0.79497138  0.34134747  0.81658508     0.16000
C1281       C  0.68436778  0.30631623  0.70458984     0.87800
C1282       C  0.69170793  0.30375906  0.68852687    -0.52500
C1283       C  0.70736102  0.30664922  0.68792135     0.10700
C1284       C  0.71428669  0.31237054  0.70352848     0.21600
C1285       C  0.69438850  0.29637276  0.71544612    -0.53200
C1286       C  0.71004939  0.29955320  0.71542184     0.10800
C1287       C  0.68865104  0.32325655  0.70853712    -0.52700
C1288       C  0.70419534  0.32658605  0.70789254     0.11300
H1289       H  0.68542603  0.30093312  0.67805947     0.15900
H1290       H  0.72681602  0.31526980  0.70287937     0.01600
H1291       H  0.68922146  0.28718179  0.72227465     0.16200
H1292       H  0.67997904  0.33193495  0.71151049     0.16000
C1293       C  0.71188961  0.69803928  0.31373923     0.87800
C1294       C  0.71262450  0.68170694  0.30648626    -0.52500
C1295       C  0.70906625  0.68102223  0.29105991     0.10700
C1296       C  0.70468287  0.69702635  0.28414791     0.21600
C1297       C  0.72228783  0.70818146  0.30346405    -0.53200
C1298       C  0.71872399  0.70772732  0.28807267     0.10800
C1299       C  0.69517369  0.70321760  0.31002953    -0.52700
C1300       C  0.69138100  0.70296915  0.29465149     0.11300
H1301       H  0.71618298  0.67152078  0.31296571     0.15900
H1302       H  0.70167420  0.69664096  0.27163417     0.01600
H1303       H  0.73177300  0.71525263  0.30808298     0.16200
H1304       H  0.68640579  0.70602642  0.31849061     0.16000
C1305       C  0.20578698  0.18731837  0.70353743     0.87800
C1306       C  0.20499709  0.19313212  0.68674007    -0.52500
C1307       C  0.20169639  0.20861625  0.68527318     0.10700
C1308       C  0.19905109  0.21690538  0.70101973     0.21600
C1309       C  0.21721570  0.19828353  0.71188676    -0.53200
C1310       C  0.21392136  0.21379759  0.71069828     0.10800
C1311       C  0.18963083  0.19170485  0.70986193    -0.52700
C1312       C  0.18617382  0.20713062  0.70868666     0.11300
H1313       H  0.20591652  0.18542633  0.67679623     0.15900
H1314       H  0.19620699  0.22941284  0.69998084     0.01600
H1315       H  0.22686857  0.19390042  0.71873500     0.16200
H1316       H  0.18128985  0.18342443  0.71440611     0.16000
C1317       C  0.20492880  0.67109143  0.19833264     0.87800
C1318       C  0.20732336  0.67614910  0.18142958    -0.52500
C1319       C  0.20633653  0.69171935  0.17900093     0.10700
C1320       C  0.20202782  0.70102863  0.19362394     0.21600
C1321       C  0.21613046  0.68128821  0.20802763    -0.53200
C1322       C  0.21451683  0.69688546  0.20581234     0.10800
C1323       C  0.18849718  0.67750725  0.20194637    -0.52700
C1324       C  0.18679950  0.69321526  0.19928830     0.11300
H1325       H  0.20970993  0.66810811  0.17200421     0.15900
H1326       H  0.20119526  0.71365211  0.19128321     0.01600
H1327       H  0.22449591  0.67652729  0.21617840     0.16200
H1328       H  0.17891032  0.67025703  0.20566446     0.16000
C1329       C  0.20311730  0.32286607  0.79747436     0.87800
C1330       C  0.20879905  0.31920947  0.81404817    -0.52500
C1331       C  0.20890283  0.30370529  0.81746215     0.10700
C1332       C  0.20315772  0.29316817  0.80405552     0.21600
C1333       C  0.21320857  0.31279504  0.78672163    -0.53200
C1334       C  0.21380879  0.29724107  0.79018214     0.10800
C1335       C  0.18689535  0.31522329  0.79696755    -0.52700
C1336       C  0.18684310  0.29971266  0.80010353     0.11300
H1337       H  0.21184672  0.32799572  0.82261720     0.15900
H1338       H  0.20288537  0.28075225  0.80733084     0.01600
H1339       H  0.21922550  0.31785937  0.77695501     0.16200
H1340       H  0.17616706  0.32150399  0.79483800     0.16000
C1341       C  0.31936078  0.20490117  0.79549291     0.87800
C1342       C  0.31382267  0.18836462  0.79144847    -0.52500
C1343       C  0.29829989  0.18590480  0.79326300     0.10700
C1344       C  0.28943089  0.20023804  0.79948508     0.21600
C1345       C  0.30877449  0.21579036  0.78614789    -0.53200
C1346       C  0.29313399  0.21368704  0.78826729     0.10800
C1347       C  0.31397662  0.20684969  0.81242452    -0.52700
C1348       C  0.29828800  0.20449055  0.81460512     0.11300
H1349       H  0.32156994  0.17920730  0.78748579     0.15900
H1350       H  0.27676592  0.19829107  0.80100852     0.01600
H1351       H  0.31342637  0.22458511  0.77845324     0.16200
H1352       H  0.32182875  0.20849673  0.82211795     0.16000
C1353       C  0.71110394  0.20078513  0.17647829     0.87800
C1354       C  0.69400738  0.20435904  0.18002165    -0.52500
C1355       C  0.68991929  0.20282281  0.19519914     0.10700
C1356       C  0.70333898  0.19663660  0.20551999     0.21600
C1357       C  0.72062213  0.21056979  0.18820123    -0.53200
C1358       C  0.71670105  0.20846862  0.20337026     0.10800
C1359       C  0.71274175  0.18390031  0.18201639    -0.52700
C1360       C  0.70908532  0.18166255  0.19721567     0.11300
H1361       H  0.68540111  0.20723442  0.17132551     0.15900
H1362       H  0.70016521  0.19484424  0.21782071     0.01600
H1363       H  0.72976237  0.21856379  0.18469848     0.16200
H1364       H  0.71717907  0.17455757  0.17477265     0.16000
N1365       N  0.90190326  0.22916175  0.28456733    -0.26000
N1366       N  0.89458724  0.24218476  0.28820276    -0.33900
C1367       C  0.87994521  0.23884363  0.29240257     0.02300
C1368       C  0.87790890  0.22297070  0.29148967     0.08300
C1369       C  0.89202959  0.21708452  0.28649329    -0.04800
H1370       H  0.87105156  0.24742613  0.29465668     0.09000
H1371       H  0.89459799  0.20511704  0.28351073     0.10200
Cu1372     Cu  0.90204342  0.26403453  0.28207426     0.44200
Cu1373     Cu  0.92394813  0.22943175  0.27471686     0.42000
Cu1374     Cu  0.92700631  0.26279293  0.24961857     0.43900
N1375       N  0.89836487  0.27750493  0.26288769    -0.33400
N1376       N  0.90639706  0.27573282  0.25000127    -0.27700
C1377       C  0.89785083  0.28127835  0.23810868    -0.03800
C1378       C  0.88381083  0.28684283  0.24392034     0.08400
C1379       C  0.88469762  0.28432064  0.25966923     0.02200
H1380       H  0.90102579  0.28015941  0.22608748     0.09900
H1381       H  0.87520230  0.28524010  0.26780426     0.09000
N1382       N  0.94592968  0.24863481  0.25543159    -0.34900
N1383       N  0.94476223  0.23649667  0.26468704    -0.27000
C1384       C  0.95907469  0.23068052  0.26731325    -0.02300
C1385       C  0.96987049  0.23956053  0.25933743     0.06300
C1386       C  0.96105382  0.25080147  0.25188225     0.04400
H1387       H  0.96143059  0.22090656  0.27473286     0.09500
H1388       H  0.96537653  0.26033042  0.24500957     0.08400
N1389       N  0.10308951  0.24113417  0.22896941    -0.26000
N1390       N  0.10997171  0.22756755  0.22698819    -0.33900
C1391       C  0.12383341  0.22974418  0.22020576     0.02300
C1392       C  0.12595048  0.24550465  0.21772151     0.08300
C1393       C  0.11243801  0.25238945  0.22336047    -0.04800
H1394       H  0.13244822  0.22070655  0.21883434     0.09000
H1395       H  0.10995203  0.26468400  0.22415802     0.10200
Cu1396     Cu  0.10357258  0.20790305  0.23883984     0.44200
Cu1397     Cu  0.08266202  0.24298583  0.24179171     0.42000
Cu1398     Cu  0.08120304  0.21454061  0.27283077     0.43900
N1399       N  0.10965196  0.19922041  0.26008421    -0.33400
N1400       N  0.10254097  0.20290623  0.27312827    -0.27700
C1401       C  0.11258842  0.20072892  0.28500610    -0.03800
C1402       C  0.12667518  0.19563934  0.27895508     0.08400
C1403       C  0.12422601  0.19463909  0.26319747     0.02200
H1404       H  0.11045383  0.20433762  0.29681290     0.09900
H1405       H  0.13301854  0.19281999  0.25448445     0.09000
N1406       N  0.06188532  0.22727397  0.26536163    -0.34900
N1407       N  0.06260636  0.23783321  0.25432430    -0.27000
C1408       C  0.04815252  0.24305164  0.25132410    -0.02300
C1409       C  0.03764050  0.23530659  0.26074605     0.06300
C1410       C  0.04688080  0.22543901  0.26956951     0.04400
H1411       H  0.04554732  0.25156568  0.24257354     0.09500
H1412       H  0.04296521  0.21692390  0.27781032     0.08400
C1413       C  0.79315569  0.20422008  0.32229366     0.87800
C1414       C  0.80985761  0.20945772  0.31834499    -0.52500
C1415       C  0.81461735  0.20592789  0.30360257     0.10700
C1416       C  0.80158214  0.19824519  0.29369521     0.21600
C1417       C  0.78288212  0.21187496  0.31001133    -0.53200
C1418       C  0.78704936  0.20894958  0.29507430     0.10800
C1419       C  0.79327100  0.18677992  0.31800230    -0.52700
C1420       C  0.79748712  0.18352709  0.30305862     0.11300
H1421       H  0.81793021  0.21437311  0.32661338     0.15900
H1422       H  0.80481504  0.19568547  0.28154711     0.01600
H1423       H  0.77307227  0.21926162  0.31298111     0.16200
H1424       H  0.79083099  0.17775173  0.32638327     0.16000
C1425       C  0.82272863  0.29636866  0.21493539     0.87800
C1426       C  0.81586520  0.31292224  0.21501859    -0.52500
C1427       C  0.80081242  0.31365775  0.20987389     0.10700
C1428       C  0.79392702  0.29781184  0.20485172     0.21600
C1429       C  0.81111796  0.28644369  0.22410780    -0.53200
C1430       C  0.79601578  0.28714933  0.21905159     0.10800
C1431       C  0.82055862  0.29132626  0.19791936    -0.52700
C1432       C  0.80553030  0.29180729  0.19258972     0.11300
H1433       H  0.82237854  0.32327538  0.21831372     0.15900
H1434       H  0.78171835  0.29855822  0.20065679     0.01600
H1435       H  0.81470051  0.27927497  0.23378835     0.16200
H1436       H  0.83020331  0.28875026  0.19027147     0.16000
C1437       C  0.20355175  0.79070216  0.30942556     0.87800
C1438       C  0.18733809  0.78879846  0.30194012    -0.52500
C1439       C  0.18719449  0.79057314  0.28631694     0.10700
C1440       C  0.20310133  0.79470604  0.27945582     0.21600
C1441       C  0.21424155  0.77960995  0.30036081    -0.53200
C1442       C  0.21404952  0.78164172  0.28473453     0.10800
C1443       C  0.20839339  0.80722913  0.30434798    -0.52700
C1444       C  0.20804968  0.80940451  0.28863360     0.11300
H1445       H  0.17678246  0.78646487  0.30842981     0.15900
H1446       H  0.20284025  0.79616876  0.26670088     0.01600
H1447       H  0.22138297  0.77083967  0.30592298     0.16200
H1448       H  0.20987066  0.81696023  0.31223111     0.16000
C1449       C  0.32161587  0.78987649  0.19702140     0.87800
C1450       C  0.31583278  0.80642883  0.20081828    -0.52500
C1451       C  0.30013819  0.80832985  0.19866305     0.10700
C1452       C  0.29159696  0.79356617  0.19284834     0.21600
C1453       C  0.31129111  0.77899224  0.20666209    -0.53200
C1454       C  0.29554747  0.78101959  0.20494613     0.10800
C1455       C  0.31614425  0.78749193  0.18022377    -0.52700
C1456       C  0.30052606  0.78889459  0.17806093     0.11300
H1457       H  0.32330242  0.81606600  0.20418793     0.15900
H1458       H  0.27900348  0.79551323  0.19084142     0.01600
H1459       H  0.31628084  0.77027770  0.21422693     0.16200
H1460       H  0.32387497  0.78457986  0.17072938     0.16000
C1461       C  0.29370391  0.66958096  0.28630571     0.87800
C1462       C  0.28866694  0.67324699  0.30301594    -0.52500
C1463       C  0.29036988  0.68849206  0.30740819     0.10700
C1464       C  0.29768283  0.69874660  0.29468494     0.21600
C1465       C  0.28494318  0.68127494  0.27621477    -0.53200
C1466       C  0.28693182  0.69650010  0.28040194     0.10800
C1467       C  0.31075308  0.67506496  0.28616475    -0.52700
C1468       C  0.31298013  0.69028398  0.29034493     0.11300
H1469       H  0.28487355  0.66454966  0.31119258     0.15900
H1470       H  0.29937280  0.71109848  0.29814577     0.01600
H1471       H  0.27772609  0.67772420  0.26643532     0.16200
H1472       H  0.32032188  0.66759537  0.28272630     0.16000
C1473       C  0.70347968  0.31755051  0.29158836     0.87800
C1474       C  0.70948137  0.31527422  0.30828642    -0.52500
C1475       C  0.70845345  0.30023305  0.31342390     0.10700
C1476       C  0.70181687  0.28871643  0.30107016     0.21600
C1477       C  0.71272365  0.30599127  0.28172120    -0.53200
C1478       C  0.71202339  0.29092685  0.28648004     0.10800
C1479       C  0.68684627  0.31091211  0.29230547    -0.52700
C1480       C  0.68587067  0.29580623  0.29678487     0.11300
H1481       H  0.71255746  0.32480133  0.31601599     0.15900
H1482       H  0.70106141  0.27646208  0.30499386     0.01600
H1483       H  0.71946030  0.30956705  0.27172893     0.16200
H1484       H  0.67654548  0.31753853  0.28926338     0.16000
C1485       C  0.32034557  0.30321229  0.70374738     0.87800
C1486       C  0.31437551  0.31967687  0.70737060    -0.52500
C1487       C  0.29863586  0.32137461  0.70564245     0.10700
C1488       C  0.29021217  0.30634250  0.70017776     0.21600
C1489       C  0.31043842  0.29253418  0.71393686    -0.53200
C1490       C  0.29459159  0.29348192  0.71197040     0.10800
C1491       C  0.31443385  0.30030513  0.68700330    -0.52700
C1492       C  0.29871575  0.30188563  0.68516620     0.11300
H1493       H  0.32195303  0.32927424  0.71073982     0.15900
H1494       H  0.27764742  0.30802315  0.69813476     0.01600
H1495       H  0.31598788  0.28518986  0.72244537     0.16200
H1496       H  0.32183877  0.29882632  0.67701161     0.16000
C1497       C  0.20883510  0.19190480  0.32518656     0.87800
C1498       C  0.21115125  0.17514094  0.31905505    -0.52500
C1499       C  0.20812693  0.17319348  0.30359243     0.10700
C1500       C  0.20283401  0.18831416  0.29562899     0.21600
C1501       C  0.21870564  0.20229538  0.31457621    -0.53200
C1502       C  0.21569211  0.20041183  0.29913320     0.10800
C1503       C  0.19180063  0.19519578  0.32066335    -0.52700
C1504       C  0.18863197  0.19343013  0.30527372     0.11300
H1505       H  0.21340669  0.16530462  0.32650703     0.15900
H1506       H  0.20038300  0.18699158  0.28306247     0.01600
H1507       H  0.22744385  0.21040003  0.31894288     0.16200
H1508       H  0.18272559  0.19786094  0.32896123     0.16000
C1509       C  0.31855276  0.18863787  0.20646467     0.87800
C1510       C  0.31652084  0.19471059  0.18989390    -0.52500
C1511       C  0.30143008  0.19629394  0.18511283     0.10700
C1512       C  0.28943327  0.19099546  0.19734228     0.21600
C1513       C  0.30844835  0.19924027  0.21665095    -0.53200
C1514       C  0.29320339  0.20085161  0.21201701     0.10800
C1515       C  0.30973892  0.17306468  0.20592612    -0.52700
C1516       C  0.29451744  0.17426366  0.20148753     0.11300
H1517       H  0.32615049  0.19695195  0.18213404     0.15900
H1518       H  0.27724482  0.19186636  0.19318730     0.01600
H1519       H  0.31313201  0.20459138  0.22709722     0.16200
H1520       H  0.31490080  0.16194987  0.20881889     0.16000
C1521       C  0.20586401  0.28011269  0.18187989     0.87800
C1522       C  0.20383113  0.29665120  0.18831048    -0.52500
C1523       C  0.19953065  0.29751601  0.20348265     0.10700
C1524       C  0.19698493  0.28128674  0.21085513     0.21600
C1525       C  0.21701595  0.27208813  0.19320997    -0.53200
C1526       C  0.21249324  0.27255156  0.20832676     0.10800
C1527       C  0.18982430  0.27269410  0.18478620    -0.52700
C1528       C  0.18518844  0.27299178  0.19991741     0.11300
H1529       H  0.20626869  0.30694550  0.18152847     0.15900
H1530       H  0.19334407  0.28168670  0.22315924     0.01600
H1531       H  0.22755777  0.26622441  0.18946551     0.16200
H1532       H  0.18212922  0.26848598  0.17571377     0.16000
C1533       C  0.32065380  0.27875075  0.30413634     0.87800
C1534       C  0.31322752  0.27804223  0.32026070    -0.52500
C1535       C  0.29792057  0.28216264  0.32063472     0.10700
C1536       C  0.29129475  0.28719090  0.30479994     0.21600
C1537       C  0.30985741  0.26909785  0.29354167    -0.53200
C1538       C  0.29447348  0.27323775  0.29388006     0.10800
C1539       C  0.31787167  0.29573153  0.29953190    -0.52700
C1540       C  0.30256158  0.30022761  0.29939142     0.11300
H1541       H  0.31943395  0.27489645  0.33073409     0.15900
H1542       H  0.27884598  0.29055453  0.30526506     0.01600
H1543       H  0.31418505  0.25969885  0.28629454     0.16200
H1544       H  0.32730691  0.30378918  0.29720500     0.16000
C1545       C  0.15449141  0.20431212  0.27976975     0.24900
C1546       C  0.14218135  0.19585887  0.28648736    -0.23200
C1547       C  0.14509751  0.18704980  0.29978824     0.19800
C1548       C  0.16020543  0.18627889  0.30596135     0.24800
C1549       C  0.17257391  0.19445944  0.29898891    -0.23200
C1550       C  0.16955264  0.20355381  0.28593176     0.19700
F1551       F  0.18114530  0.21194053  0.27930167    -0.13200
F1552       F  0.15188508  0.21352610  0.26732671    -0.15500
F1553       F  0.16287131  0.17702826  0.31836698    -0.15500
F1554       F  0.13347775  0.17868193  0.30639373    -0.13200
C1555       C  0.16020251  0.27377138  0.21524539     0.24900
C1556       C  0.17005222  0.26601446  0.20478703    -0.23200
C1557       C  0.16508797  0.25167360  0.19842283     0.19800
C1558       C  0.15059870  0.24535559  0.20226411     0.24800
C1559       C  0.14074817  0.25303569  0.21279911    -0.23200
C1560       C  0.14571523  0.26734692  0.21923560     0.19700
F1561       F  0.13680455  0.27495471  0.22975980    -0.13200
F1562       F  0.16439474  0.28776399  0.22136392    -0.15500
F1563       F  0.14616008  0.23173397  0.19547672    -0.15500
F1564       F  0.17440910  0.24352721  0.18864795    -0.13200
C1565       C  0.86431324  0.28098444  0.22293650     0.24900
C1566       C  0.86920988  0.29038589  0.23539315    -0.23200
C1567       C  0.85898697  0.30175271  0.24111385     0.19800
C1568       C  0.84423450  0.30381749  0.23445006     0.24800
C1569       C  0.83938549  0.29485796  0.22146335    -0.23200
C1570       C  0.84950974  0.28288749  0.21633083     0.19700
F1571       F  0.84479062  0.27208293  0.20577473    -0.13200
F1572       F  0.87332770  0.26902625  0.21793863    -0.15500
F1573       F  0.83442199  0.31399481  0.24143547    -0.15500
F1574       F  0.86311948  0.31063420  0.25354590    -0.13200
C1575       C  0.85879973  0.20856558  0.30736457     0.24900
C1576       C  0.86287545  0.21495512  0.29312356    -0.23200
C1577       C  0.85164588  0.21585685  0.28133084     0.19800
C1578       C  0.83616244  0.21157971  0.28418197     0.24800
C1579       C  0.83150171  0.20709872  0.29913949    -0.23200
C1580       C  0.84332511  0.20447232  0.31031671     0.19700
F1581       F  0.83997686  0.19799920  0.32420284    -0.13200
F1582       F  0.86966903  0.20710038  0.31872748    -0.15500
F1583       F  0.82587469  0.21228159  0.27234592    -0.15500
F1584       F  0.85554992  0.22155611  0.26724085    -0.13200
C1585       C  0.99504766  0.23366157  0.27324583     0.24900
C1586       C  0.98716299  0.23816880  0.25966874    -0.23200
C1587       C  0.99598689  0.24159576  0.24644537     0.19800
C1588       C  0.01227749  0.24059815  0.24676329     0.24800
C1589       C  0.02024871  0.23630968  0.26040725    -0.23200
C1590       C  0.01136903  0.23283291  0.27364176     0.19700
F1591       F  0.01844031  0.22909288  0.28719103    -0.13200
F1592       F  0.98702291  0.23059463  0.28638520    -0.15500
F1593       F  0.02012826  0.24335787  0.23346419    -0.15500
F1594       F  0.98882413  0.24545768  0.23297122    -0.13200
C1595       C  0.78908337  0.14061492  0.29494185     0.24900
C1596       C  0.80087568  0.13677020  0.28437287    -0.23200
C1597       C  0.81215948  0.14806824  0.28075724     0.19800
C1598       C  0.81136225  0.16308252  0.28715233     0.24800
C1599       C  0.79899731  0.16725384  0.29701287    -0.23200
C1600       C  0.78804352  0.15571498  0.30105823     0.19700
F1601       F  0.77572677  0.15923722  0.31022130    -0.13200
F1602       F  0.77782246  0.13011137  0.29846106    -0.15500
F1603       F  0.82277391  0.17345482  0.28371939    -0.15500
F1604       F  0.82383448  0.14462057  0.27075678    -0.13200
C1605       C  0.73244540  0.15384767  0.22160404     0.24900
C1606       C  0.72822021  0.13928971  0.21521954    -0.23200
C1607       C  0.71598925  0.13863289  0.20433862     0.19800
C1608       C  0.70892955  0.15240058  0.19914846     0.24800
C1609       C  0.71370774  0.16700120  0.20505391    -0.23200
C1610       C  0.72519979  0.16750610  0.21666041     0.19700
F1611       F  0.73035840  0.18134136  0.22237517    -0.13200
F1612       F  0.74394589  0.15494739  0.23240651    -0.15500
F1613       F  0.69788864  0.15154880  0.18786315    -0.15500
F1614       F  0.71164037  0.12481097  0.19792572    -0.13200
C1615       C  0.79532887  0.85913543  0.28503272     0.24900
C1616       C  0.78097843  0.86264651  0.29205410    -0.23200
C1617       C  0.77337916  0.85089366  0.30038973     0.19800
C1618       C  0.77958580  0.83594520  0.30121442     0.24800
C1619       C  0.79413698  0.83230468  0.29450047    -0.23200
C1620       C  0.80180823  0.84420321  0.28615053     0.19700
F1621       F  0.81486441  0.84138806  0.27786816    -0.13200
F1622       F  0.80270661  0.86979835  0.27614241    -0.15500
F1623       F  0.77095110  0.82481349  0.30828491    -0.15500
F1624       F  0.75968419  0.85373489  0.30766936    -0.13200
C1625       C  0.72110943  0.84396473  0.23438639     0.24900
C1626       C  0.71918401  0.85738244  0.22518477    -0.23200
C1627       C  0.71331130  0.85548623  0.21002386     0.19800
C1628       C  0.70888764  0.84067062  0.20448966     0.24800
C1629       C  0.71044124  0.82749941  0.21392592    -0.23200
C1630       C  0.71659828  0.82927635  0.22886362     0.19700
F1631       F  0.71768608  0.81681101  0.23837275    -0.13200
F1632       F  0.72740781  0.84493552  0.24879990    -0.15500
F1633       F  0.70246137  0.83927174  0.19015827    -0.15500
F1634       F  0.71108238  0.86803696  0.20084323    -0.13200
C1635       C  0.74748924  0.99159681  0.24101107     0.24900
C1636       C  0.76042848  0.98281192  0.24584236    -0.23200
C1637       C  0.77375909  0.99091599  0.25112988     0.19800
C1638       C  0.77397973  0.00723562  0.25207916     0.24800
C1639       C  0.76080642  0.01608711  0.24786997    -0.23200
C1640       C  0.74762362  0.00794630  0.24209783     0.19700
F1641       F  0.73450374  0.01566783  0.23799469    -0.13200
F1642       F  0.73434832  0.98439358  0.23583990    -0.15500
F1643       F  0.78734939  0.01427204  0.25684864    -0.15500
F1644       F  0.78684626  0.98305957  0.25514675    -0.13200
C1645       C  0.14956094  0.71189318  0.78260053     0.24900
C1646       C  0.16182852  0.71795270  0.79193602    -0.23200
C1647       C  0.15925133  0.73233092  0.79955844     0.19800
C1648       C  0.14478938  0.73963082  0.79894192     0.24800
C1649       C  0.13263617  0.73352129  0.78978078    -0.23200
C1650       C  0.13512569  0.71948178  0.78173421     0.19700
F1651       F  0.12403875  0.71364677  0.77203483    -0.13200
F1652       F  0.15172950  0.69949456  0.77308498    -0.15500
F1653       F  0.14287056  0.75307274  0.80705867    -0.15500
F1654       F  0.17097948  0.73992276  0.80707716    -0.13200
C1655       C  0.14796797  0.80957318  0.72279104     0.24900
C1656       C  0.13629033  0.79897917  0.71825326    -0.23200
C1657       C  0.13919771  0.78886484  0.70572201     0.19800
C1658       C  0.15378840  0.78886670  0.69837158     0.24800
C1659       C  0.16568721  0.79922131  0.70320585    -0.23200
C1660       C  0.16230924  0.80993151  0.71519757     0.19700
F1661       F  0.17268506  0.82112825  0.71946428    -0.13200
F1662       F  0.14546338  0.81975146  0.73461539    -0.15500
F1663       F  0.15642252  0.77826366  0.68697801    -0.15500
F1664       F  0.12825410  0.77834112  0.70114703    -0.13200
C1665       C  0.85275724  0.80526877  0.71007334     0.24900
C1666       C  0.85323441  0.79410733  0.72184430    -0.23200
C1667       C  0.83921293  0.78942696  0.72886208     0.19800
C1668       C  0.82488418  0.79480316  0.72330745     0.24800
C1669       C  0.82435557  0.80473774  0.71048760    -0.23200
C1670       C  0.83840890  0.81044841  0.70434405     0.19700
F1671       F  0.83820179  0.82031636  0.69214078    -0.13200
F1672       F  0.86608849  0.81007202  0.70316337    -0.15500
F1673       F  0.81155021  0.78914500  0.72954961    -0.15500
F1674       F  0.83935165  0.77906804  0.74065967    -0.13200
C1675       C  0.85542341  0.70306545  0.77746194     0.24900
C1676       C  0.86476259  0.71519054  0.78327302    -0.23200
C1677       C  0.85886042  0.72483139  0.79501712     0.19800
C1678       C  0.84363300  0.72276294  0.80041176     0.24800
C1679       C  0.83405645  0.71055300  0.79462216    -0.23200
C1680       C  0.84020811  0.70099898  0.78270095     0.19700
F1681       F  0.83120352  0.69052651  0.77492422    -0.13200
F1682       F  0.86069121  0.69381481  0.76580476    -0.15500
F1683       F  0.83792213  0.73371455  0.81022257    -0.15500
F1684       F  0.86720572  0.73729230  0.80017468    -0.13200
C1685       C  0.98782802  0.76806248  0.76708527     0.24900
C1686       C  0.97905246  0.77035598  0.75349344    -0.23200
C1687       C  0.98702215  0.77314058  0.73955786     0.19800
C1688       C  0.00337784  0.77323094  0.73917982     0.24800
C1689       C  0.01214725  0.77050804  0.75271733    -0.23200
C1690       C  0.00414107  0.76816275  0.76671471     0.19700
F1691       F  0.01207669  0.76630824  0.78020007    -0.13200
F1692       F  0.98061976  0.76602254  0.78088325    -0.15500
F1693       F  0.01058983  0.77530372  0.72539479    -0.15500
F1694       F  0.97903023  0.77505902  0.72611407    -0.13200
C1695       C  0.79472447  0.15299492  0.72131531     0.24900
C1696       C  0.78087901  0.14721411  0.71448841    -0.23200
C1697       C  0.77244703  0.15696456  0.70446617     0.19800
C1698       C  0.77733904  0.17218451  0.70176563     0.24800
C1699       C  0.79103321  0.17804608  0.70866397    -0.23200
C1700       C  0.79973384  0.16831692  0.71843841     0.19700
F1701       F  0.81324328  0.17350634  0.72491027    -0.13200
F1702       F  0.80320459  0.14402939  0.73106869    -0.15500
F1703       F  0.76849582  0.18131972  0.69246522    -0.15500
F1704       F  0.75943690  0.15173575  0.69705739    -0.13200
C1705       C  0.72345269  0.14932527  0.79523034     0.24900
C1706       C  0.71334440  0.14315789  0.78392259    -0.23200
C1707       C  0.70122984  0.15252506  0.77831229     0.19800
C1708       C  0.69930264  0.16776736  0.78376677     0.24800
C1709       C  0.70905494  0.17396029  0.79559695    -0.23200
C1710       C  0.72160023  0.16457552  0.80070704     0.19700
F1711       F  0.73302818  0.17043386  0.80997004    -0.13200
F1712       F  0.73604941  0.14112064  0.80002575    -0.15500
F1713       F  0.68857979  0.17671199  0.77648314    -0.15500
F1714       F  0.69154167  0.14711869  0.76700167    -0.13200
C1715       C  0.69612266  0.86735747  0.78026963     0.24900
C1716       C  0.70898856  0.87561861  0.78619358    -0.23200
C1717       C  0.71855672  0.86838756  0.79722676     0.19800
C1718       C  0.71559153  0.85302900  0.80183118     0.24800
C1719       C  0.70269546  0.84454334  0.79584131    -0.23200
C1720       C  0.69327602  0.85198044  0.78458553     0.19700
F1721       F  0.68212153  0.84420308  0.77647698    -0.13200
F1722       F  0.68660147  0.87394881  0.76957410    -0.15500
F1723       F  0.72605637  0.84616035  0.81139826    -0.15500
F1724       F  0.73153645  0.87568427  0.80267830    -0.13200
C1725       C  0.78699938  0.86345694  0.71800866     0.24900
C1726       C  0.77310345  0.86986871  0.71214237    -0.23200
C1727       C  0.76409378  0.86101413  0.70162774     0.19800
C1728       C  0.76865579  0.84605236  0.69729559     0.24800
C1729       C  0.78248645  0.83959423  0.70316533    -0.23200
C1730       C  0.79164527  0.84843629  0.71354864     0.19700
F1731       F  0.80523431  0.84267788  0.71916743    -0.13200
F1732       F  0.79583037  0.87146105  0.72844433    -0.15500
F1733       F  0.75927609  0.83771871  0.68758999    -0.15500
F1734       F  0.75082454  0.86687523  0.69538397    -0.13200
C1735       C  0.77655658  0.00013743  0.75695136     0.24900
C1736       C  0.76286215  0.99192896  0.76070245    -0.23200
C1737       C  0.74936737  0.00048669  0.76425846     0.19800
C1738       C  0.74954404  0.01677446  0.76413855     0.24800
C1739       C  0.76324154  0.02504017  0.76048461    -0.23200
C1740       C  0.77675484  0.01649701  0.75687399     0.19700
F1741       F  0.79031061  0.02395534  0.75365240    -0.13200
F1742       F  0.78990205  0.99234746  0.75374362    -0.15500
F1743       F  0.73602051  0.02438556  0.76699473    -0.15500
F1744       F  0.73570156  0.99312095  0.76723285    -0.13200
C1745       C  0.78798564  0.70110105  0.15323810     0.24900
C1746       C  0.80023312  0.70592702  0.16310559    -0.23200
C1747       C  0.81050920  0.71759280  0.15804191     0.19800
C1748       C  0.80795176  0.72503554  0.14394924     0.24800
C1749       C  0.79528322  0.72077359  0.13446093    -0.23200
C1750       C  0.78558892  0.70840643  0.13898118     0.19700
F1751       F  0.77316866  0.70408516  0.13014051    -0.13200
F1752       F  0.77781306  0.68989049  0.15773253    -0.15500
F1753       F  0.81780747  0.73658601  0.13960890    -0.15500
F1754       F  0.82314980  0.72175684  0.16663983    -0.13200
C1755       C  0.71450030  0.78073466  0.14595145     0.24900
C1756       C  0.72445952  0.79265079  0.14091247    -0.23200
C1757       C  0.72751766  0.80537437  0.15076265     0.19800
C1758       C  0.72072852  0.80620999  0.16544504     0.24800
C1759       C  0.71092674  0.79419788  0.17063149    -0.23200
C1760       C  0.70787603  0.78143567  0.16071675     0.19700
F1761       F  0.69915142  0.76922449  0.16560491    -0.13200
F1762       F  0.71194288  0.76795028  0.13695470    -0.15500
F1763       F  0.72365995  0.81884721  0.17451314    -0.15500
F1764       F  0.73714363  0.81699937  0.14614053    -0.13200
C1765       C  0.76914343  0.72866188  0.84928000     0.24900
C1766       C  0.77482644  0.72092920  0.86247007    -0.23200
C1767       C  0.78835972  0.71188332  0.86119670     0.19800
C1768       C  0.79575055  0.71012512  0.84685557     0.24800
C1769       C  0.78981578  0.71757344  0.83361123    -0.23200
C1770       C  0.77656243  0.72698361  0.83501201     0.19700
F1771       F  0.77082412  0.73466597  0.82255004    -0.13200
F1772       F  0.75650435  0.73807505  0.85021359    -0.15500
F1773       F  0.80819075  0.70047354  0.84576346    -0.15500
F1774       F  0.79397478  0.70413542  0.87366201    -0.13200
C1775       C  0.69675913  0.78113496  0.85439236     0.24900
C1776       C  0.70828273  0.78645675  0.86475307    -0.23200
C1777       C  0.71779601  0.79904857  0.86043794     0.19800
C1778       C  0.71608407  0.80583840  0.84579749     0.24800
C1779       C  0.70471673  0.80024409  0.83526407    -0.23200
C1780       C  0.69494646  0.78794608  0.83989857     0.19700
F1781       F  0.68339644  0.78250176  0.83055674    -0.13200
F1782       F  0.68712934  0.76924392  0.85832109    -0.15500
F1783       F  0.72607031  0.81736188  0.84169057    -0.15500
F1784       F  0.72933751  0.80421544  0.86998698    -0.13200
C1785       C  0.74567704  0.76938427  0.99405365     0.24900
C1786       C  0.74789814  0.75564956  0.98537939    -0.23200
C1787       C  0.75013097  0.74157905  0.99333179     0.19800
C1788       C  0.75020339  0.74127119  0.00955058     0.24800
C1789       C  0.74809180  0.75502899  0.01823834    -0.23200
C1790       C  0.74579491  0.76908904  0.01027326     0.19700
F1791       F  0.74427298  0.78272322  0.01813251    -0.13200
F1792       F  0.74395461  0.78326482  0.98685648    -0.15500
F1793       F  0.75191717  0.72737796  0.01672772    -0.15500
F1794       F  0.75176001  0.72797095  0.98544259    -0.13200
C1795       C  0.15595290  0.27018941  0.78851493     0.24900
C1796       C  0.14315302  0.27476077  0.79764625    -0.23200
C1797       C  0.14499198  0.28738270  0.80794085     0.19800
C1798       C  0.15936948  0.29516097  0.80917826     0.24800
C1799       C  0.17211833  0.29054484  0.80002541    -0.23200
C1800       C  0.17020614  0.27809336  0.78962064     0.19700
F1801       F  0.18179788  0.27425644  0.77971819    -0.13200
F1802       F  0.15446718  0.25859541  0.77784890    -0.15500
F1803       F  0.16083609  0.30726831  0.81927052    -0.15500
F1804       F  0.13292619  0.29205961  0.81693019    -0.13200
C1805       C  0.17045391  0.21951053  0.72941250     0.24900
C1806       C  0.17124660  0.21338923  0.71439135    -0.23200
C1807       C  0.15746511  0.21141807  0.70573599     0.19800
C1808       C  0.14295191  0.21500839  0.71229191     0.24800
C1809       C  0.14206658  0.22046447  0.72766535    -0.23200
C1810       C  0.15606802  0.22326113  0.73590991     0.19700
F1811       F  0.15589796  0.22940341  0.75042985    -0.13200
F1812       F  0.18355165  0.22094405  0.73818534    -0.15500
F1813       F  0.12977550  0.21220493  0.70397217    -0.15500
F1814       F  0.15803629  0.20527783  0.69122659    -0.13200
C1815       C  0.84650249  0.27706326  0.79112494     0.24900
C1816       C  0.86096304  0.28370349  0.79550548    -0.23200
C1817       C  0.86135718  0.29960581  0.79950737     0.19800
C1818       C  0.84768176  0.30853218  0.79940589     0.24800
C1819       C  0.83323748  0.30183425  0.79510224    -0.23200
C1820       C  0.83288679  0.28597415  0.79099008     0.19700
F1821       F  0.81942109  0.27904719  0.78631496    -0.13200
F1822       F  0.84545096  0.26202960  0.78633034    -0.15500
F1823       F  0.84857090  0.32361523  0.80409193    -0.15500
F1824       F  0.87492179  0.30649353  0.80396272    -0.13200
C1825       C  0.84846106  0.22361260  0.74013159     0.24900
C1826       C  0.86081807  0.21335145  0.73692187    -0.23200
C1827       C  0.85894078  0.20222639  0.72504882     0.19800
C1828       C  0.84487475  0.20127409  0.71667797     0.24800
C1829       C  0.83253829  0.21152347  0.71996880    -0.23200
C1830       C  0.83456022  0.22281723  0.73160797     0.19700
F1831       F  0.82342446  0.23368257  0.73413292    -0.13200
F1832       F  0.85008257  0.23488147  0.75112635    -0.15500
F1833       F  0.84328967  0.19038604  0.70531120    -0.15500
F1834       F  0.87060924  0.19212399  0.72176052    -0.13200
C1835       C  0.99374116  0.25202123  0.77758932     0.24900
C1836       C  0.98462550  0.25053754  0.76406159    -0.23200
C1837       C  0.99234463  0.24932474  0.74974855     0.19800
C1838       C  0.00872416  0.24977151  0.74895950     0.24800
C1839       C  0.01789806  0.25127555  0.76250390    -0.23200
C1840       C  0.01010669  0.25224845  0.77684833     0.19700
F1841       F  0.01827929  0.25286849  0.79032332    -0.13200
F1842       F  0.98682998  0.25269114  0.79168029    -0.15500
F1843       F  0.01553452  0.24919286  0.73482381    -0.15500
F1844       F  0.98400852  0.24822927  0.73638979    -0.13200
C1845       C  0.29396990  0.78502987  0.13494175     0.24900
C1846       C  0.28656237  0.77042618  0.13407735    -0.23200
C1847       C  0.28167496  0.76330351  0.14789545     0.19800
C1848       C  0.28540496  0.76989806  0.16224322     0.24800
C1849       C  0.29341384  0.78410565  0.16314784    -0.23200
C1850       C  0.29741470  0.79179409  0.14939493     0.19700
F1851       F  0.30557314  0.80534747  0.15000498    -0.13200
F1852       F  0.29889013  0.79220053  0.12188878    -0.15500
F1853       F  0.28264142  0.76153105  0.17518932    -0.15500
F1854       F  0.27369078  0.74963769  0.14762158    -0.13200
C1855       C  0.22879145  0.71356569  0.14856992     0.24900
C1856       C  0.22336641  0.70638417  0.13485166    -0.23200
C1857       C  0.21064336  0.69611631  0.13559673     0.19800
C1858       C  0.20430912  0.69210086  0.14995755     0.24800
C1859       C  0.21041154  0.69853286  0.16377300    -0.23200
C1860       C  0.22223380  0.70981599  0.16287051     0.19700
F1861       F  0.22823477  0.71642041  0.17590758    -0.13200
F1862       F  0.24073601  0.72396091  0.14819012    -0.15500
F1863       F  0.19259393  0.68146120  0.15042909    -0.15500
F1864       F  0.20509270  0.68911188  0.12254958    -0.13200
C1865       C  0.26464162  0.79271450  0.85008412     0.24900
C1866       C  0.27403707  0.78530750  0.86118239    -0.23200
C1867       C  0.28940588  0.78138984  0.85702169     0.19800
C1868       C  0.29510625  0.78455239  0.84215765     0.24800
C1869       C  0.28543948  0.79149032  0.83081104    -0.23200
C1870       C  0.27003524  0.79526124  0.83513984     0.19700
F1871       F  0.25999182  0.80163406  0.82477604    -0.13200
F1872       F  0.25011942  0.79778660  0.85359314    -0.15500
F1873       F  0.30991657  0.78020209  0.83916890    -0.15500
F1874       F  0.29896881  0.77400413  0.86709505    -0.13200
C1875       C  0.21662814  0.70246337  0.84939845     0.24900
C1876       C  0.22030674  0.71805882  0.85308615    -0.23200
C1877       C  0.22044459  0.72906146  0.84102006     0.19800
C1878       C  0.21520701  0.72501130  0.82622618     0.24800
C1879       C  0.21060864  0.70969773  0.82281194    -0.23200
C1880       C  0.21183981  0.69832794  0.83433462     0.19700
F1881       F  0.20708901  0.68352963  0.83136835    -0.13200
F1882       F  0.21648142  0.69144940  0.86056669    -0.15500
F1883       F  0.21337166  0.73640409  0.81556284    -0.15500
F1884       F  0.22517622  0.74395669  0.84352521    -0.13200
C1885       C  0.26757464  0.73924303  0.98765854     0.24900
C1886       C  0.25416867  0.73560577  0.97891493    -0.23200
C1887       C  0.24012058  0.73268024  0.98673298     0.19800
C1888       C  0.23946418  0.73367217  0.00294184     0.24800
C1889       C  0.25285755  0.73755215  0.01168800    -0.23200
C1890       C  0.26695735  0.74014957  0.00381629     0.19700
F1891       F  0.28034126  0.74316677  0.01172485    -0.13200
F1892       F  0.28145792  0.74162141  0.98056772    -0.15500
F1893       F  0.22554663  0.73142824  0.00999691    -0.15500
F1894       F  0.22683282  0.72955660  0.97869189    -0.13200
C1895       C  0.29111022  0.14242475  0.79255003     0.24900
C1896       C  0.28427966  0.14048610  0.77781370    -0.23200
C1897       C  0.28029357  0.15385742  0.76929424     0.19800
C1898       C  0.28409077  0.16869298  0.77481720     0.24800
C1899       C  0.29137650  0.17062070  0.78921946    -0.23200
C1900       C  0.29469128  0.15740658  0.79818074     0.19700
F1901       F  0.30216870  0.15899769  0.81199305    -0.13200
F1902       F  0.29519389  0.12984517  0.80105643    -0.15500
F1903       F  0.28179364  0.18109268  0.76547553    -0.15500
F1904       F  0.27291363  0.15265303  0.75540690    -0.13200
C1905       C  0.22744853  0.14847883  0.69771726     0.24900
C1906       C  0.22192192  0.13947273  0.71001212    -0.23200
C1907       C  0.21123489  0.14609540  0.72036635     0.19800
C1908       C  0.20600445  0.16137895  0.71834410     0.24800
C1909       C  0.21072140  0.17024305  0.70539814    -0.23200
C1910       C  0.22218629  0.16370087  0.69558062     0.19700
F1911       F  0.22913518  0.17225667  0.68440083    -0.13200
F1912       F  0.23833410  0.14264836  0.68792017    -0.15500
F1913       F  0.19732746  0.16775803  0.72981854    -0.15500
F1914       F  0.20677317  0.13822405  0.73318723    -0.13200
C1915       C  0.28961971  0.86075007  0.79258674     0.24900
C1916       C  0.28104673  0.86289356  0.77889238    -0.23200
C1917       C  0.27469715  0.84977640  0.77121578     0.19800
C1918       C  0.27754960  0.83479619  0.77666228     0.24800
C1919       C  0.28664623  0.83259227  0.78997656    -0.23200
C1920       C  0.29246358  0.84570221  0.79806523     0.19700
F1921       F  0.30136370  0.84392438  0.81096413    -0.13200
F1922       F  0.29575637  0.87316192  0.80030845    -0.15500
F1923       F  0.27104842  0.82244716  0.76912580    -0.15500
F1924       F  0.26539534  0.85144073  0.75858111    -0.13200
C1925       C  0.20465333  0.86154733  0.70541142     0.24900
C1926       C  0.21671964  0.86207817  0.71642259    -0.23200
C1927       C  0.22249054  0.84805546  0.72251569     0.19800
C1928       C  0.21688264  0.83373334  0.71703957     0.24800
C1929       C  0.20562257  0.83322633  0.70523338    -0.23200
C1930       C  0.19924586  0.84721469  0.69973860     0.19700
F1931       F  0.18819604  0.84698031  0.68843682    -0.13200
F1932       F  0.19892090  0.87488218  0.69931715    -0.15500
F1933       F  0.22328525  0.82039595  0.72245000    -0.15500
F1934       F  0.23387278  0.84821542  0.73348984    -0.13200
C1935       C  0.24373103  0.99398907  0.76938922     0.24900
C1936       C  0.24035142  0.98534787  0.75587152    -0.23200
C1937       C  0.23691322  0.99347292  0.74216880     0.19800
C1938       C  0.23687109  0.00978539  0.74199639     0.24800
C1939       C  0.24024299  0.01844766  0.75553814    -0.23200
C1940       C  0.24363581  0.01029754  0.76923888     0.19700
F1941       F  0.24648398  0.01807269  0.78268920    -0.13200
F1942       F  0.24673265  0.98667996  0.78294906    -0.15500
F1943       F  0.23412371  0.01701921  0.72834581    -0.15500
F1944       F  0.23419342  0.98568505  0.72869468    -0.13200
C1945       C  0.17111987  0.77817210  0.26558176     0.24900
C1946       C  0.17275229  0.78958001  0.27714387    -0.23200
C1947       C  0.16043241  0.79985686  0.28017605     0.19800
C1948       C  0.14652482  0.79865443  0.27178884     0.24800
C1949       C  0.14482140  0.78721466  0.26024560    -0.23200
C1950       C  0.15720455  0.77694551  0.25719153     0.19700
F1951       F  0.15562501  0.76538645  0.24649156    -0.13200
F1952       F  0.18280431  0.76791963  0.26280036    -0.15500
F1953       F  0.13484997  0.80887745  0.27465974    -0.15500
F1954       F  0.16203884  0.81126122  0.29103123    -0.13200
C1955       C  0.17107510  0.71740864  0.20511445     0.24900
C1956       C  0.17152623  0.70166184  0.20045841    -0.23200
C1957       C  0.15726932  0.69432499  0.19642929     0.19800
C1958       C  0.14312038  0.70247235  0.19721392     0.24800
C1959       C  0.14283862  0.71816520  0.20187122    -0.23200
C1960       C  0.15699136  0.72542371  0.20603817     0.19700
F1961       F  0.15730868  0.74027493  0.21149290    -0.13200
F1962       F  0.18420563  0.72531103  0.20896167    -0.15500
F1963       F  0.12975203  0.69514274  0.19285366    -0.15500
F1964       F  0.15698168  0.67950314  0.19092270    -0.13200
C1965       C  0.85834305  0.77342975  0.29703554     0.24900
C1966       C  0.86782017  0.77959689  0.28533334    -0.23200
C1967       C  0.86186698  0.79150505  0.27596301     0.19800
C1968       C  0.84655173  0.79677663  0.27795296     0.24800
C1969       C  0.83694908  0.79046817  0.28958875    -0.23200
C1970       C  0.84318615  0.77892487  0.29928473     0.19700
F1971       F  0.83482886  0.77316269  0.31125606    -0.13200
F1972       F  0.86382807  0.76205908  0.30641440    -0.15500
F1973       F  0.84095780  0.80763412  0.26805304    -0.15500
F1974       F  0.87053550  0.79744820  0.26428901    -0.13200
C1975       C  0.86544730  0.70948406  0.20009140     0.24900
C1976       C  0.86617259  0.71951662  0.21294973    -0.23200
C1977       C  0.85229148  0.72541887  0.21925486     0.19800
C1978       C  0.83786753  0.72036602  0.21360201     0.24800
C1979       C  0.83711653  0.70947533  0.20147407    -0.23200
C1980       C  0.85098513  0.70442768  0.19442578     0.19700
F1981       F  0.85050853  0.69379226  0.18273005    -0.13200
F1982       F  0.87868750  0.70355138  0.19389637    -0.15500
F1983       F  0.82475224  0.72489246  0.22103947    -0.15500
F1984       F  0.85269678  0.73556261  0.23137884    -0.13200
C1985       C  0.99641518  0.75358899  0.22497358     0.24900
C1986       C  0.98858246  0.75545403  0.23917035    -0.23200
C1987       C  0.99737729  0.75542288  0.25298032     0.19800
C1988       C  0.01362142  0.75392423  0.25256590     0.24800
C1989       C  0.02140962  0.75221431  0.23837646    -0.23200
C1990       C  0.01263730  0.75190481  0.22459583     0.19700
F1991       F  0.01981879  0.75062342  0.21067649    -0.13200
F1992       F  0.98845402  0.75390981  0.21136393    -0.15500
F1993       F  0.02172081  0.75372623  0.26610207    -0.15500
F1994       F  0.99025560  0.75631943  0.26695116    -0.13200
C1995       C  0.78794581  0.29292142  0.15177197     0.24900
C1996       C  0.79520166  0.28002562  0.14469853    -0.23200
C1997       C  0.80584567  0.27128491  0.15352833     0.19800
C1998       C  0.80872355  0.27489402  0.16905427     0.24800
C1999       C  0.80148245  0.28770151  0.17620614    -0.23200
C2000       C  0.79109909  0.29675387  0.16736630     0.19700
F2001       F  0.78424614  0.30950779  0.17366134    -0.13200
F2002       F  0.77749843  0.30158541  0.14378162    -0.15500
F2003       F  0.81845734  0.26554927  0.17719532    -0.15500
F2004       F  0.81371967  0.25920021  0.14711037    -0.13200
C2005       C  0.71552313  0.21740662  0.13493429     0.24900
C2006       C  0.72952213  0.21048084  0.13015912    -0.23200
C2007       C  0.73690414  0.20001505  0.14023294     0.19800
C2008       C  0.73088431  0.19703787  0.15490628     0.24800
C2009       C  0.71667349  0.20365116  0.15979601    -0.23200
C2010       C  0.70930926  0.21429620  0.14960226     0.19700
F2011       F  0.69698767  0.22301868  0.15409395    -0.13200
F2012       F  0.70841501  0.22820469  0.12597053    -0.15500
F2013       F  0.73957596  0.18825240  0.16465373    -0.15500
F2014       F  0.75036881  0.19290258  0.13608737    -0.13200
C2015       C  0.80050065  0.31547982  0.85799551     0.24900
C2016       C  0.79270358  0.30145256  0.86105628    -0.23200
C2017       C  0.78564917  0.29329315  0.84865529     0.19800
C2018       C  0.78708872  0.29852382  0.83345530     0.24800
C2019       C  0.79561716  0.31206558  0.83018892    -0.23200
C2020       C  0.80204033  0.32071639  0.84268140     0.19700
F2021       F  0.81054807  0.33376991  0.84005646    -0.13200
F2022       F  0.80735353  0.32365250  0.86970166    -0.15500
F2023       F  0.78000137  0.29031040  0.82192329    -0.15500
F2024       F  0.77728360  0.28013340  0.85123936    -0.13200
C2025       C  0.71955829  0.23061353  0.85954821     0.24900
C2026       C  0.73509725  0.22655601  0.86311590    -0.23200
C2027       C  0.74340084  0.21743547  0.85233041     0.19800
C2028       C  0.73653699  0.21274668  0.83836420     0.24800
C2029       C  0.72113645  0.21687542  0.83476349    -0.23200
C2030       C  0.71267713  0.22586085  0.84544083     0.19700
F2031       F  0.69765523  0.22971150  0.84237571    -0.13200
F2032       F  0.71111353  0.23944966  0.86949336    -0.15500
F2033       F  0.74506276  0.20419977  0.82820619    -0.15500
F2034       F  0.75816004  0.21268728  0.85537750    -0.13200
C2035       C  0.77254333  0.27564021  0.99351653     0.24900
C2036       C  0.75909171  0.27228942  0.98462731    -0.23200
C2037       C  0.74529585  0.26839541  0.99247993     0.19800
C2038       C  0.74502264  0.26739437  0.00867392     0.24800
C2039       C  0.75855978  0.27017350  0.01757765    -0.23200
C2040       C  0.77228800  0.27457783  0.00979391     0.19700
F2041       F  0.78568370  0.27716876  0.01783660    -0.13200
F2042       F  0.78616874  0.27923824  0.98644995    -0.15500
F2043       F  0.73131540  0.26396314  0.01566229    -0.15500
F2044       F  0.73186976  0.26582101  0.98448547    -0.13200
C2045       C  0.76697262  0.66059357  0.81302437     0.24900
C2046       C  0.76939558  0.64931454  0.80141461    -0.23200
C2047       C  0.77967662  0.65265406  0.78925576     0.19800
C2048       C  0.78716017  0.66710630  0.78858396     0.24800
C2049       C  0.78468892  0.67844923  0.80016273    -0.23200
C2050       C  0.77461078  0.67499827  0.81246443     0.19700
F2051       F  0.77245349  0.68535275  0.82418554    -0.13200
F2052       F  0.75721651  0.65760391  0.82497729    -0.15500
F2053       F  0.79648512  0.67019240  0.77631358    -0.15500
F2054       F  0.78186448  0.64227739  0.77755025    -0.13200
C2055       C  0.69383909  0.65656545  0.72065179     0.24900
C2056       C  0.70229214  0.65626332  0.73463091    -0.23200
C2057       C  0.70957257  0.67009691  0.73984300     0.19800
C2058       C  0.70845069  0.68381988  0.73127433     0.24800
C2059       C  0.70047638  0.68398954  0.71703350    -0.23200
C2060       C  0.69293459  0.67026877  0.71195138     0.19700
F2061       F  0.68432117  0.67022263  0.69873075    -0.13200
F2062       F  0.68614431  0.64367621  0.71556107    -0.20300
F2063       F  0.71563139  0.69681350  0.73675958    -0.15500
F2064       F  0.71839387  0.67027231  0.75292937    -0.13200
C2065       C  0.80682429  0.37313238  0.76988917     0.24900
C2066       C  0.79362288  0.38139709  0.77471068    -0.23200
C2067       C  0.78325701  0.37428650  0.78499213     0.19800
C2068       C  0.78598740  0.35917015  0.79028445     0.24800
C2069       C  0.79956949  0.35086710  0.78600126    -0.23200
C2070       C  0.80974086  0.35806799  0.77528105     0.19700
F2071       F  0.82181539  0.35035429  0.76879066    -0.13200
F2072       F  0.81673159  0.37949801  0.75945872    -0.15500
F2073       F  0.77480978  0.35237629  0.79904828    -0.15500
F2074       F  0.76982838  0.38151558  0.78906147    -0.13200
C2075       C  0.70856627  0.37074599  0.70625230     0.24900
C2076       C  0.72245878  0.37316133  0.71457025    -0.23200
C2077       C  0.73021232  0.36019261  0.72083938     0.19800
C2078       C  0.72424181  0.34513610  0.71875498     0.24800
C2079       C  0.71045650  0.34265591  0.71024170    -0.23200
C2080       C  0.70270264  0.35565172  0.70395512     0.19700
F2081       F  0.68972701  0.35374383  0.69508448    -0.13200
F2082       F  0.70097216  0.38295413  0.69983062    -0.15500
F2083       F  0.73173953  0.33304027  0.72549190    -0.15500
F2084       F  0.74338068  0.36209944  0.72942451    -0.13200
C2085       C  0.75046756  0.50725022  0.75746731     0.24900
C2086       C  0.73703706  0.49785040  0.75613584    -0.23200
C2087       C  0.72238474  0.50521262  0.75557858     0.19800
C2088       C  0.72122444  0.52153231  0.75665942     0.24800
C2089       C  0.73468829  0.53084625  0.75833959    -0.23200
C2090       C  0.74930368  0.52347580  0.75858675     0.19700
F2091       F  0.76261153  0.53202576  0.75948204    -0.13200
F2092       F  0.76487423  0.50079582  0.75720842    -0.15500
F2093       F  0.70688752  0.52815503  0.75668083    -0.15500
F2094       F  0.70912533  0.49660232  0.75455950    -0.13200
C2095       C  0.78166286  0.79561846  0.63641157     0.24900
C2096       C  0.78949704  0.78158757  0.63339602    -0.23200
C2097       C  0.79822715  0.77481294  0.64534257     0.19800
C2098       C  0.79873657  0.78157594  0.66005608     0.24800
C2099       C  0.79122065  0.79586917  0.66320240    -0.23200
C2100       C  0.78234708  0.80260434  0.65111084     0.19700
F2101       F  0.77306993  0.81508395  0.65352697    -0.13200
F2102       F  0.77232224  0.80208018  0.62550504    -0.15500
F2103       F  0.80624412  0.77372108  0.67144430    -0.15500
F2104       F  0.80611314  0.76135271  0.64290389    -0.13200
C2105       C  0.70836634  0.72963349  0.64214040     0.24900
C2106       C  0.71734317  0.71804833  0.63498362    -0.23200
C2107       C  0.72099778  0.70463873  0.64338776     0.19800
C2108       C  0.71623771  0.70290992  0.65875251     0.24800
C2109       C  0.70708680  0.71444436  0.66619039    -0.23200
C2110       C  0.70350929  0.72798312  0.65756972     0.19700
F2111       F  0.69609318  0.74015711  0.66436317    -0.13200
F2112       F  0.70534927  0.74312855  0.63464312    -0.15500
F2113       F  0.72206612  0.69054890  0.66644878    -0.15500
F2114       F  0.72997895  0.69338782  0.63689572    -0.13200
C2115       C  0.80664599  0.78353827  0.35550391     0.24900
C2116       C  0.79701697  0.77036902  0.35681702    -0.23200
C2117       C  0.78963810  0.76439257  0.34338535     0.19800
C2118       C  0.79171876  0.77154459  0.32901836     0.24800
C2119       C  0.80114235  0.78482616  0.32777419    -0.23200
C2120       C  0.80871339  0.79069329  0.34110604     0.19700
F2121       F  0.81825251  0.80328239  0.34013346    -0.13200
F2122       F  0.81431997  0.78926653  0.36809557    -0.15500
F2123       F  0.78390617  0.76593253  0.31645037    -0.15500
F2124       F  0.77984456  0.75199406  0.34424261    -0.13200
C2125       C  0.70980130  0.70632005  0.34289135     0.24900
C2126       C  0.71762882  0.69855138  0.33064386    -0.23200
C2127       C  0.73230747  0.69195898  0.33399635     0.19800
C2128       C  0.73873787  0.69275314  0.34883499     0.24800
C2129       C  0.73118647  0.70090998  0.36080560    -0.23200
C2130       C  0.71647053  0.70736718  0.35770807     0.19700
F2131       F  0.70881787  0.71567644  0.36868629    -0.13200
F2132       F  0.69633816  0.71414854  0.34069644    -0.15500
F2133       F  0.75263087  0.68567640  0.35131722    -0.15500
F2134       F  0.74088566  0.68515335  0.32265157    -0.13200
C2135       C  0.76692120  0.75444596  0.48900868     0.24900
C2136       C  0.75392148  0.75101469  0.47957795    -0.23200
C2137       C  0.73938396  0.74872598  0.48677542     0.19800
C2138       C  0.73788459  0.74984426  0.50293345     0.24800
C2139       C  0.75089539  0.75320228  0.51239859    -0.23200
C2140       C  0.76545673  0.75546360  0.50516773     0.19700
F2141       F  0.77852585  0.75806452  0.51371335    -0.13200
F2142       F  0.78126461  0.75619650  0.48268489    -0.15500
F2143       F  0.72354518  0.74803403  0.50923865    -0.15500
F2144       F  0.72643394  0.74580010  0.47814470    -0.13200
C2145       C  0.80913071  0.64166383  0.22227920     0.24900
C2146       C  0.80114074  0.63032483  0.21351602    -0.23200
C2147       C  0.79535548  0.63441258  0.19884085     0.19800
C2148       C  0.79682557  0.64966544  0.19339696     0.24800
C2149       C  0.80432811  0.66130959  0.20247221    -0.23200
C2150       C  0.81026933  0.65693407  0.21710364     0.19700
F2151       F  0.81666659  0.66766496  0.22687797    -0.13200
F2152       F  0.81543175  0.63814807  0.23627042    -0.15500
F2153       F  0.78953003  0.65294533  0.17989812    -0.15500
F2154       F  0.78715050  0.62403314  0.19011797    -0.13200
C2155       C  0.72593845  0.65112666  0.26365462     0.24900
C2156       C  0.72088011  0.63714196  0.27043971    -0.23200
C2157       C  0.70987779  0.63777272  0.28237662     0.19800
C2158       C  0.70498301  0.65217694  0.28828117     0.24800
C2159       C  0.71090486  0.66620168  0.28223835    -0.23200
C2160       C  0.72087715  0.66553901  0.26940666     0.19700
F2161       F  0.72682964  0.67879605  0.26331571    -0.13200
F2162       F  0.73637317  0.65083017  0.25188797    -0.15500
F2163       F  0.69511367  0.65243465  0.30051924    -0.15500
F2164       F  0.70493519  0.62448852  0.28923559    -0.13200
C2165       C  0.78980316  0.35482689  0.19858457     0.24900
C2166       C  0.77504096  0.35625696  0.20543378    -0.23200
C2167       C  0.76916416  0.34375631  0.21418365     0.19800
C2168       C  0.77761231  0.32997953  0.21559207     0.24800
C2169       C  0.79218248  0.32846077  0.20852662    -0.23200
C2170       C  0.79832807  0.34103217  0.20013937     0.19700
F2171       F  0.81238004  0.33978720  0.19308953    -0.13200
F2172       F  0.79579170  0.36661850  0.19006516    -0.15500
F2173       F  0.77176086  0.31825661  0.22430200    -0.15500
F2174       F  0.75549111  0.34501504  0.22191712    -0.13200
C2175       C  0.71643342  0.35935205  0.28105818     0.24900
C2176       C  0.70643769  0.36258757  0.26854795    -0.23200
C2177       C  0.69539063  0.35141006  0.26403182     0.19800
C2178       C  0.69466099  0.33708491  0.27138026     0.24800
C2179       C  0.70410180  0.33384398  0.28446736    -0.23200
C2180       C  0.71538471  0.34510483  0.28887233     0.19700
F2181       F  0.72636712  0.34194701  0.29972723    -0.13200
F2182       F  0.72805062  0.36941986  0.28495573    -0.15500
F2183       F  0.68525490  0.32606710  0.26490888    -0.15500
F2184       F  0.68558161  0.35410508  0.25196396    -0.13200
C2185       C  0.73233484  0.48936998  0.23231773     0.24900
C2186       C  0.74626131  0.48084543  0.23119060    -0.23200
C2187       C  0.76042491  0.48893551  0.22975929     0.19800
C2188       C  0.76070419  0.50522248  0.22970821     0.24800
C2189       C  0.74676839  0.51380834  0.23088325    -0.23200
C2190       C  0.73258038  0.50566517  0.23213546     0.19700
F2191       F  0.71885860  0.51344139  0.23276528    -0.13200
F2192       F  0.71838713  0.48192684  0.23312368    -0.15500
F2193       F  0.77473240  0.51252657  0.22913714    -0.15500
F2194       F  0.77411167  0.48109272  0.22901738    -0.13200
C2195       C  0.64316497  0.78979517  0.81008368     0.24900
C2196       C  0.63899175  0.78129172  0.79676003    -0.23200
C2197       C  0.64943671  0.78057692  0.78425946     0.19800
C2198       C  0.66387155  0.78815914  0.78511564     0.24800
C2199       C  0.66823314  0.79627724  0.79859040    -0.23200
C2200       C  0.65769526  0.79728348  0.81097871     0.19700
F2201       F  0.66150859  0.80552531  0.82392626    -0.13200
F2202       F  0.63334737  0.79050282  0.82233991    -0.15500
F2203       F  0.67341522  0.78791802  0.77263768    -0.15500
F2204       F  0.64554111  0.77268476  0.77111832    -0.13200
C2205       C  0.65084494  0.73625417  0.72793404     0.24900
C2206       C  0.63794582  0.72725648  0.72311740    -0.23200
C2207       C  0.63965357  0.71678876  0.71070870     0.19800
C2208       C  0.65425173  0.71476029  0.70374655     0.24800
C2209       C  0.66732136  0.72325179  0.70906343    -0.23200
C2210       C  0.66541116  0.73421516  0.72101550     0.19700
F2211       F  0.67769910  0.74283151  0.72613059    -0.13200
F2212       F  0.64937567  0.74685946  0.73956415    -0.15500
F2213       F  0.65583973  0.70375438  0.69251906    -0.15500
F2214       F  0.62746420  0.70776690  0.70606173    -0.13200
C2215       C  0.35485614  0.79940746  0.79068658     0.24900
C2216       C  0.35732604  0.79609564  0.77491084    -0.23200
C2217       C  0.34408810  0.79447401  0.76524009     0.19800
C2218       C  0.32903495  0.79562081  0.77118045     0.24800
C2219       C  0.32646135  0.79779264  0.78712597    -0.23200
C2220       C  0.33970302  0.80033950  0.79669193     0.19700
F2221       F  0.33813792  0.80437599  0.81182053    -0.13200
F2222       F  0.36709291  0.80202782  0.80037598    -0.15500
F2223       F  0.31710812  0.79429109  0.76100181    -0.15500
F2224       F  0.34536336  0.79109362  0.74995646    -0.13200
C2225       C  0.49041876  0.75458485  0.74509103     0.24900
C2226       C  0.48173267  0.75604092  0.75880741    -0.23200
C2227       C  0.48984760  0.75805204  0.77288947     0.19800
C2228       C  0.50623324  0.75823044  0.77328882     0.24800
C2229       C  0.51496428  0.75658973  0.75956287    -0.23200
C2230       C  0.50677135  0.75493423  0.74544533     0.19700
F2231       F  0.51453929  0.75408680  0.73182041    -0.13200
F2232       F  0.48308226  0.75331799  0.73118126    -0.15500
F2233       F  0.51348458  0.75943735  0.78723968    -0.15500
F2234       F  0.48192817  0.75927224  0.78640817    -0.13200
C2235       C  0.80988792  0.23750860  0.64880523     0.24900
C2236       C  0.79707735  0.23296476  0.63963292    -0.23200
C2237       C  0.78653847  0.22205241  0.64556972     0.19800
C2238       C  0.78853566  0.21616350  0.66054876     0.24800
C2239       C  0.80162315  0.22041362  0.66981891    -0.23200
C2240       C  0.81203587  0.23156673  0.66370567     0.19700
F2241       F  0.82359129  0.23793879  0.67243415    -0.13200
F2242       F  0.82009140  0.24834772  0.64356170    -0.15500
F2243       F  0.77694775  0.20712906  0.66629929    -0.15500
F2244       F  0.77353517  0.21806081  0.63743020    -0.13200
C2245       C  0.73440200  0.31515418  0.65405888     0.24900
C2246       C  0.73107339  0.30262145  0.64399881    -0.23200
C2247       C  0.72051303  0.29111625  0.64874591     0.19800
C2248       C  0.71328824  0.29218600  0.66320479     0.24800
C2249       C  0.71620828  0.30497927  0.67314972    -0.23200
C2250       C  0.72690260  0.31643756  0.66842504     0.19700
F2251       F  0.72965916  0.32919488  0.67738749    -0.13200
F2252       F  0.74464597  0.32638046  0.64977720    -0.15500
F2253       F  0.70363127  0.28048998  0.66760572    -0.15500
F2254       F  0.71762083  0.27849410  0.63962113    -0.13200
C2255       C  0.77253707  0.20046270  0.34296470     0.24900
C2256       C  0.78686994  0.20739682  0.33874781    -0.23200
C2257       C  0.79390373  0.21777262  0.34962205     0.19800
C2258       C  0.78708807  0.22056837  0.36411003     0.24800
C2259       C  0.77289984  0.21351147  0.36811659    -0.23200
C2260       C  0.76581259  0.20330948  0.35741970     0.19700
F2261       F  0.75213750  0.19616457  0.36085783    -0.13200
F2262       F  0.76464470  0.19117156  0.33282112    -0.15500
F2263       F  0.79388649  0.23115798  0.37375036    -0.15500
F2264       F  0.80659854  0.22642416  0.34616596    -0.13200
C2265       C  0.69968407  0.28470330  0.35354970     0.24900
C2266       C  0.71311327  0.28887531  0.36202356    -0.23200
C2267       C  0.72484826  0.29749065  0.35459820     0.19800
C2268       C  0.72341265  0.30121893  0.33880029     0.24800
C2269       C  0.71024932  0.29634524  0.33017288    -0.23200
C2270       C  0.69826734  0.28836325  0.33785667     0.19700
F2271       F  0.68497449  0.28428980  0.33026806    -0.13200
F2272       F  0.68789781  0.27687288  0.36050827    -0.15500
F2273       F  0.73516897  0.30903005  0.33178025    -0.15500
F2274       F  0.73807292  0.30150374  0.36235221    -0.13200
C2275       C  0.74961893  0.27820055  0.49512618     0.24900
C2276       C  0.75035900  0.26398232  0.48691115    -0.23200
C2277       C  0.75168073  0.25015324  0.49553509     0.19800
C2278       C  0.75252906  0.25053774  0.51178034     0.24800
C2279       C  0.75201328  0.26474176  0.51999304    -0.23200
C2280       C  0.75043901  0.27857744  0.51142321     0.19700
F2281       F  0.75027970  0.29259611  0.51875124    -0.13200
F2282       F  0.74866368  0.29185776  0.48739595    -0.15500
F2283       F  0.75338637  0.23685768  0.51948652    -0.15500
F2284       F  0.75167566  0.23608231  0.48830989    -0.13200
C2285       C  0.21925820  0.13173300  0.29216008     0.24900
C2286       C  0.20781016  0.12805481  0.28100227    -0.23200
C2287       C  0.19617977  0.13908137  0.27776888     0.19800
C2288       C  0.19617464  0.15358397  0.28520461     0.24800
C2289       C  0.20797465  0.15756478  0.29591471    -0.23200
C2290       C  0.21940363  0.14636173  0.29945831     0.19700
F2291       F  0.23114491  0.14975997  0.30952543    -0.13200
F2292       F  0.23085394  0.12155098  0.29540301    -0.15500
F2293       F  0.18434286  0.16353483  0.28210567    -0.15500
F2294       F  0.18469988  0.13579756  0.26736343    -0.13200
C2295       C  0.26476358  0.14565176  0.21625375     0.24900
C2296       C  0.26671889  0.13300124  0.20601178    -0.23200
C2297       C  0.27750023  0.13423996  0.19390047     0.19800
C2298       C  0.28603985  0.14800917  0.19192430     0.24800
C2299       C  0.28401037  0.16064104  0.20213017    -0.23200
C2300       C  0.27348891  0.15927340  0.21442402     0.19700
F2301       F  0.27244860  0.17070238  0.22528325    -0.13200
F2302       F  0.25505270  0.14451054  0.22856609    -0.15500
F2303       F  0.29652408  0.14893150  0.18024728    -0.15500
F2304       F  0.27967748  0.12214730  0.18395898    -0.13200
C2305       C  0.27106426  0.83838467  0.21233867     0.24900
C2306       C  0.27615391  0.85187203  0.20460475    -0.23200
C2307       C  0.28960634  0.85105083  0.19542558     0.19800
C2308       C  0.29753739  0.83693709  0.19362117     0.24800
C2309       C  0.29217452  0.82342193  0.20101379    -0.23200
C2310       C  0.27896107  0.82428670  0.21047176     0.19700
F2311       F  0.27386812  0.81151910  0.21815383    -0.13200
F2312       F  0.25865046  0.83888307  0.22201447    -0.15500
F2313       F  0.31008745  0.83632738  0.18413173    -0.15500
F2314       F  0.29469456  0.86375339  0.18766336    -0.13200
C2315       C  0.22018046  0.83615360  0.28687371     0.24900
C2316       C  0.20915680  0.82514068  0.28153939    -0.23200
C2317       C  0.19870397  0.82949361  0.26973022     0.19800
C2318       C  0.19950679  0.84425259  0.26317065     0.24800
C2319       C  0.21073725  0.85512102  0.26820905    -0.23200
C2320       C  0.22093071  0.85101627  0.28031615     0.19700
F2321       F  0.23213720  0.86105109  0.28533029    -0.13200
F2322       F  0.23062767  0.83237280  0.29806845    -0.15500
F2323       F  0.18912036  0.84795346  0.25188256    -0.15500
F2324       F  0.18733491  0.81968806  0.26467769    -0.13200
C2325       C  0.24844323  0.98500706  0.22486659     0.24900
C2326       C  0.24903623  0.97606424  0.23843710    -0.23200
C2327       C  0.24867624  0.98377881  0.25286748     0.19800
C2328       C  0.24760926  0.00002976  0.25372854     0.24800
C2329       C  0.24688930  0.00898960  0.24017447    -0.23200
C2330       C  0.24734057  0.00127156  0.22572185     0.19700
F2331       F  0.24606283  0.00938879  0.21235686    -0.13200
F2332       F  0.24824631  0.97799955  0.21073220    -0.15500
F2333       F  0.24770441  0.00700408  0.26787539    -0.15500
F2334       F  0.24974608  0.97560487  0.26621765    -0.13200
C2335       C  0.28733987  0.19568587  0.15919462     0.24900
C2336       C  0.29770150  0.20301759  0.16964082    -0.23200
C2337       C  0.30550541  0.21658276  0.16490722     0.19800
C2338       C  0.30317892  0.22262428  0.15012475     0.24800
C2339       C  0.29279518  0.21543203  0.13959552    -0.23200
C2340       C  0.28492868  0.20181672  0.14426892     0.19700
F2341       F  0.27461654  0.19467225  0.13459101    -0.13200
F2342       F  0.27986120  0.18240247  0.16327417    -0.15500
F2343       F  0.31137222  0.23549363  0.14605777    -0.15500
F2344       F  0.31536783  0.22418846  0.17473193    -0.13200
C2345       C  0.23098321  0.28968221  0.14653346     0.24900
C2346       C  0.22578886  0.27894537  0.13533603    -0.23200
C2347       C  0.21395870  0.26835998  0.13926675     0.19800
C2348       C  0.20742228  0.26854630  0.15410113     0.24800
C2349       C  0.21226145  0.27969271  0.16531449    -0.23200
C2350       C  0.22470574  0.28974128  0.16138351     0.19700
F2351       F  0.23138418  0.29930357  0.17211417    -0.13200
F2352       F  0.24251532  0.29998137  0.14323110    -0.15500
F2353       F  0.19751179  0.25681082  0.15766542    -0.15500
F2354       F  0.20950718  0.25698155  0.12918421    -0.13200
C2355       C  0.22653601  0.27794699  0.84818554     0.24900
C2356       C  0.21884166  0.28299528  0.86167493    -0.23200
C2357       C  0.20901071  0.29600425  0.86084503     0.19800
C2358       C  0.20617779  0.30321609  0.84655389     0.24800
C2359       C  0.21319650  0.29751760  0.83292764    -0.23200
C2360       C  0.22371506  0.28511217  0.83397641     0.19700
F2361       F  0.23121271  0.27984203  0.82117170    -0.13200
F2362       F  0.23670991  0.26589594  0.84873173    -0.15500
F2363       F  0.19584984  0.31512354  0.84588760    -0.15500
F2364       F  0.20138101  0.30107667  0.87364190    -0.13200
C2365       C  0.28902164  0.21654887  0.85612867     0.24900
C2366       C  0.27672603  0.20642329  0.85981764    -0.23200
C2367       C  0.27167056  0.19549398  0.84869626     0.19800
C2368       C  0.27884275  0.19460459  0.83417830     0.24800
C2369       C  0.29089532  0.20504013  0.83025304    -0.23200
C2370       C  0.29587893  0.21602375  0.84146684     0.19700
F2371       F  0.30693801  0.22678627  0.83807632    -0.13200
F2372       F  0.29381916  0.22762196  0.86639217    -0.15500
F2373       F  0.27415837  0.18326202  0.82417164    -0.15500
F2374       F  0.25979531  0.18557373  0.85194325    -0.13200
C2375       C  0.24171893  0.24682663  0.99078180     0.24900
C2376       C  0.25539242  0.24516489  0.98202807    -0.23200
C2377       C  0.26944474  0.24192359  0.98984211     0.19800
C2378       C  0.26982853  0.24047850  0.00604131     0.24800
C2379       C  0.25611861  0.24208985  0.01482160    -0.23200
C2380       C  0.24204779  0.24520774  0.00692288     0.19700
F2381       F  0.22840779  0.24623507  0.01474676    -0.13200
F2382       F  0.22784225  0.24944375  0.98367387    -0.15500
F2383       F  0.28374397  0.23804250  0.01312683    -0.15500
F2384       F  0.28295481  0.24062892  0.98183125    -0.13200
C2385       C  0.33047734  0.72397033  0.72088831     0.24900
C2386       C  0.33013167  0.71135020  0.71049408    -0.23200
C2387       C  0.34432408  0.70447173  0.70605795     0.19800
C2388       C  0.35861452  0.71081363  0.71100499     0.24800
C2389       C  0.35895631  0.72426187  0.72034746    -0.23200
C2390       C  0.34474362  0.73035872  0.72578842     0.19700
F2391       F  0.34463514  0.74299944  0.73530605    -0.13200
F2392       F  0.31706391  0.73116923  0.72500605    -0.15500
F2393       F  0.37205680  0.70470419  0.70544978    -0.15500
F2394       F  0.34432843  0.69243233  0.69579343    -0.13200
C2395       C  0.19384435  0.65076471  0.76435816     0.24900
C2396       C  0.20484931  0.64139302  0.77193703    -0.23200
C2397       C  0.21227160  0.64725706  0.78536448     0.19800
C2398       C  0.20910082  0.66238890  0.79075067     0.24800
C2399       C  0.19834922  0.67184873  0.78290818    -0.23200
C2400       C  0.19072410  0.66579589  0.76968062     0.19700
F2401       F  0.18061404  0.67466266  0.76145426    -0.13200
F2402       F  0.18614583  0.64542564  0.75160348    -0.15500
F2403       F  0.21649735  0.66772173  0.80365668    -0.15500
F2404       F  0.22310863  0.63865737  0.79289925    -0.13200
C2405       C  0.29262172  0.64908902  0.71493136     0.24900
C2406       C  0.28059337  0.64199754  0.70622026    -0.23200
C2407       C  0.27441518  0.64997697  0.69347716     0.19800
C2408       C  0.27948780  0.66495318  0.68993699     0.24800
C2409       C  0.29131282  0.67232624  0.69876511    -0.23200
C2410       C  0.29795988  0.66412227  0.71121631     0.19700
F2411       F  0.30965812  0.67056110  0.71975003    -0.13200
F2412       F  0.29872452  0.64179915  0.72744191    -0.15500
F2413       F  0.27221067  0.67245811  0.67817981    -0.15500
F2414       F  0.26317011  0.64333056  0.68447160    -0.13200
C2415       C  0.21733810  0.36526982  0.79208334     0.24900
C2416       C  0.20725146  0.37070144  0.78048993    -0.23200
C2417       C  0.19538862  0.36079086  0.77502190     0.19800
C2418       C  0.19384286  0.34565548  0.78066475     0.24800
C2419       C  0.20367947  0.34009411  0.79262750    -0.23200
C2420       C  0.21580052  0.35012311  0.79784828     0.19700
F2421       F  0.22709033  0.34499954  0.80757376    -0.13200
F2422       F  0.22959971  0.37409892  0.79691220    -0.15500
F2423       F  0.18340212  0.33619372  0.77340679    -0.15500
F2424       F  0.18560400  0.36553862  0.76360153    -0.13200
C2425       C  0.28882665  0.36442143  0.70224613     0.24900
C2426       C  0.27608122  0.36577186  0.71231448    -0.23200
C2427       C  0.27075500  0.35237855  0.72004079     0.19800
C2428       C  0.27804383  0.33799766  0.71778632     0.24800
C2429       C  0.29074739  0.33662958  0.70772962    -0.23200
C2430       C  0.29605129  0.34996182  0.69991008     0.19700
F2431       F  0.30801190  0.34890109  0.68972955    -0.13200
F2432       F  0.29399227  0.37700414  0.69433762    -0.15500
F2433       F  0.27309402  0.32553692  0.72597981    -0.15500
F2434       F  0.25882790  0.35328560  0.73027286    -0.13200
C2435       C  0.27073834  0.49744536  0.75319458     0.24900
C2436       C  0.25678411  0.48905605  0.75529726    -0.23200
C2437       C  0.24289815  0.49746311  0.75745144     0.19800
C2438       C  0.24289676  0.51376460  0.75736141     0.24800
C2439       C  0.25681651  0.52222813  0.75522750    -0.23200
C2440       C  0.27076987  0.51382864  0.75321631     0.19700
F2441       F  0.28454249  0.52144662  0.75161614    -0.13200
F2442       F  0.28444477  0.48979926  0.75149730    -0.15500
F2443       F  0.22903426  0.52118669  0.75868374    -0.15500
F2444       F  0.22907312  0.48992304  0.75896656    -0.13200
C2445       C  0.22785904  0.80211438  0.64010252     0.24900
C2446       C  0.22016193  0.79305185  0.62881000    -0.23200
C2447       C  0.20519971  0.78722056  0.63229257     0.19800
C2448       C  0.19844602  0.78990142  0.64695188     0.24800
C2449       C  0.20665159  0.79831925  0.65857351    -0.23200
C2450       C  0.22163282  0.80404508  0.65480471     0.19700
F2451       F  0.23080774  0.81109544  0.66565107    -0.13200
F2452       F  0.24178559  0.80899230  0.63714743    -0.15500
F2453       F  0.18449834  0.78315960  0.64991743    -0.15500
F2454       F  0.19741904  0.77815494  0.62189572    -0.13200
C2455       C  0.28668449  0.71497428  0.63496553     0.24900
C2456       C  0.29595777  0.72729378  0.62968650    -0.23200
C2457       C  0.30693893  0.73399578  0.63985051     0.19800
C2458       C  0.30861383  0.72858626  0.65500223     0.24800
C2459       C  0.29976836  0.71576195  0.66029967    -0.23200
C2460       C  0.28825039  0.70957165  0.65013891     0.19700
F2461       F  0.27760308  0.69904973  0.65512675    -0.13200
F2462       F  0.27513921  0.70898990  0.62589839    -0.15500
F2463       F  0.31800337  0.73688232  0.66468580    -0.15500
F2464       F  0.31569752  0.74631678  0.63529232    -0.13200
C2465       C  0.21351602  0.78959599  0.35324138     0.24900
C2466       C  0.20618943  0.77562046  0.35755255    -0.23200
C2467       C  0.19687304  0.76778978  0.34657861     0.19800
C2468       C  0.19609818  0.77286030  0.33134932     0.24800
C2469       C  0.20361744  0.78671011  0.32669867    -0.23200
C2470       C  0.21232094  0.79507596  0.33801052     0.19700
F2471       F  0.22097207  0.80771142  0.33431215    -0.13200
F2472       F  0.22288031  0.79740426  0.36335548    -0.15500
F2473       F  0.18857952  0.76356538  0.32092999    -0.15500
F2474       F  0.18894199  0.75467089  0.35037840    -0.13200
C2475       C  0.28923010  0.70838615  0.34724309     0.24900
C2476       C  0.27469352  0.70326243  0.35288928    -0.23200
C2477       C  0.26567808  0.69320985  0.34344768     0.19800
C2478       C  0.27065131  0.68892585  0.32867233     0.24800
C2479       C  0.28506750  0.69408326  0.32293706    -0.23200
C2480       C  0.29435824  0.70383504  0.33238911     0.19700
F2481       F  0.30851898  0.70870728  0.32739799    -0.13200
F2482       F  0.29831412  0.71808966  0.35587377    -0.15500
F2483       F  0.26108928  0.67987944  0.31980590    -0.15500
F2484       F  0.25196942  0.68725872  0.34853803    -0.13200
C2485       C  0.25759506  0.73603849  0.48422086     0.24900
C2486       C  0.25407093  0.74948891  0.47565742    -0.23200
C2487       C  0.25010560  0.76315251  0.48388144     0.19800
C2488       C  0.24945626  0.76329312  0.50011006     0.24800
C2489       C  0.25281232  0.74980121  0.50864836    -0.23200
C2490       C  0.25701600  0.73620972  0.50047174     0.19700
F2491       F  0.26004945  0.72283192  0.50815615    -0.13200
F2492       F  0.26102992  0.72246220  0.47691509    -0.15500
F2493       F  0.24600455  0.77686110  0.50744233    -0.15500
F2494       F  0.24721986  0.77661191  0.47628012    -0.13200
C2495       C  0.67547829  0.23531885  0.79143532     0.24900
C2496       C  0.67625288  0.22278315  0.80175289    -0.23200
C2497       C  0.66230481  0.21715886  0.80827471     0.19800
C2498       C  0.64781847  0.22314542  0.80366287     0.24800
C2499       C  0.64700240  0.23468754  0.79226754    -0.23200
C2500       C  0.66099830  0.24114292  0.78666153     0.19700
F2501       F  0.66064647  0.25271106  0.77604060    -0.13200
F2502       F  0.68864614  0.24105318  0.78491912    -0.15500
F2503       F  0.63457671  0.21673245  0.80936180    -0.15500
F2504       F  0.66267440  0.20528304  0.81854662    -0.13200
C2505       C  0.65703621  0.29558017  0.69580031     0.24900
C2506       C  0.66688127  0.30292256  0.70694888    -0.23200
C2507       C  0.66039605  0.30633729  0.72165328     0.19800
C2508       C  0.64500702  0.30236080  0.72515740     0.24800
C2509       C  0.63566677  0.29465243  0.71419763    -0.23200
C2510       C  0.64169932  0.29150909  0.69949647     0.19700
F2511       F  0.63289039  0.28371045  0.68886506    -0.13200
F2512       F  0.66207477  0.29117688  0.68164200    -0.15500
F2513       F  0.63965777  0.30488854  0.73972833    -0.15500
F2514       F  0.66929141  0.31280338  0.73306499    -0.13200
C2515       C  0.35723241  0.20512966  0.77204846     0.24900
C2516       C  0.36763919  0.21382702  0.78128787    -0.23200
C2517       C  0.36255177  0.21906460  0.79588325     0.19800
C2518       C  0.34725515  0.21607865  0.80089345     0.24800
C2519       C  0.33663254  0.20757500  0.79143554    -0.23200
C2520       C  0.34193660  0.20254853  0.77675187     0.19700
F2521       F  0.33210108  0.19553173  0.76648094    -0.13200
F2522       F  0.36171569  0.19933272  0.75810505    -0.15500
F2523       F  0.34274710  0.22279116  0.81436950    -0.15500
F2524       F  0.37197810  0.22803598  0.80493508    -0.13200
C2525       C  0.36224871  0.28661896  0.70240084     0.24900
C2526       C  0.36833961  0.29146729  0.71673272    -0.23200
C2527       C  0.35937127  0.30134712  0.72609219     0.19800
C2528       C  0.34429378  0.30572476  0.72145530     0.24800
C2529       C  0.33784534  0.30060953  0.70712033    -0.23200
C2530       C  0.34722741  0.29081698  0.69774239     0.19700
F2531       F  0.34167926  0.28382233  0.68474556    -0.13200
F2532       F  0.37061250  0.27694797  0.69314488    -0.15500
F2533       F  0.33556520  0.31402373  0.73162915    -0.15500
F2534       F  0.36461695  0.30566321  0.74034527    -0.13200
C2535       C  0.49594947  0.27221775  0.75433423     0.24900
C2536       C  0.48752231  0.26746537  0.76742743    -0.23200
C2537       C  0.49592032  0.26348180  0.78087831     0.19800
C2538       C  0.51229437  0.26429358  0.78123636     0.24800
C2539       C  0.52075892  0.26896718  0.76808976    -0.23200
C2540       C  0.51228212  0.27287256  0.75461532     0.19700
F2541       F  0.51972385  0.27676027  0.74136666    -0.13200
F2542       F  0.48844163  0.27563354  0.74092422    -0.15500
F2543       F  0.51979352  0.26085411  0.79463827    -0.15500
F2544       F  0.48827193  0.25917769  0.79389028    -0.13200
C2545       C  0.64010522  0.79405583  0.21230331     0.24900
C2546       C  0.63624924  0.77882494  0.21646130    -0.23200
C2547       C  0.64768942  0.76725778  0.21564566     0.19800
C2548       C  0.66306496  0.77106587  0.21173518     0.24800
C2549       C  0.66751462  0.78675699  0.20924768    -0.23200
C2550       C  0.65543218  0.79791511  0.20828064     0.19700
F2551       F  0.65829527  0.81259106  0.20333682    -0.13200
F2552       F  0.62906015  0.80532238  0.21253001    -0.15500
F2553       F  0.67340645  0.75925849  0.21020025    -0.15500
F2554       F  0.64407476  0.75230733  0.21918776    -0.13200
C2555       C  0.65037978  0.70335281  0.27734009     0.24900
C2556       C  0.64446208  0.71731179  0.28368244    -0.23200
C2557       C  0.65442286  0.72658030  0.29294291     0.19800
C2558       C  0.66984348  0.72228155  0.29552572     0.24800
C2559       C  0.67572107  0.70828159  0.28946332    -0.23200
C2560       C  0.66590639  0.69887598  0.28023126     0.19700
F2561       F  0.67115306  0.68513164  0.27448088    -0.13200
F2562       F  0.64126989  0.69412828  0.26822474    -0.15500
F2563       F  0.67907113  0.73182076  0.30423101    -0.15500
F2564       F  0.64915664  0.73969999  0.29999523    -0.13200
C2565       C  0.36324379  0.78812830  0.21467229     0.24900
C2566       C  0.36912339  0.77476441  0.20731872    -0.23200
C2567       C  0.36020745  0.76763998  0.19560580     0.19800
C2568       C  0.34519776  0.77269284  0.19231392     0.24800
C2569       C  0.33893482  0.78607398  0.19959300    -0.23200
C2570       C  0.34828438  0.79368741  0.21096465     0.19700
F2571       F  0.34260271  0.80552628  0.21968346    -0.13200
F2572       F  0.37134035  0.79502603  0.22640173    -0.15500
F2573       F  0.33642655  0.76352363  0.18280855    -0.15500
F2574       F  0.36566139  0.75495781  0.18790503    -0.13200
C2575       C  0.34557374  0.71626888  0.27633654     0.24900
C2576       C  0.35881825  0.70751380  0.28039520    -0.23200
C2577       C  0.35698145  0.69456597  0.29001105     0.19800
C2578       C  0.34203895  0.68966430  0.29436598     0.24800
C2579       C  0.32867140  0.69766249  0.28919978    -0.23200
C2580       C  0.33063972  0.71143752  0.28076142     0.19700
F2581       F  0.31808654  0.71949906  0.27562042    -0.13200
F2582       F  0.34704707  0.72915873  0.26745257    -0.15500
F2583       F  0.34057881  0.67660102  0.30299275    -0.15500
F2584       F  0.36951214  0.68587922  0.29407036    -0.13200
C2585       C  0.49213254  0.73620018  0.23658085     0.24900
C2586       C  0.48494160  0.73474310  0.25112418    -0.23200
C2587       C  0.49435525  0.73166969  0.26411052     0.19800
C2588       C  0.51062186  0.73060484  0.26269317     0.24800
C2589       C  0.51788915  0.73238530  0.24817967    -0.23200
C2590       C  0.50836273  0.73498627  0.23511715     0.19700
F2591       F  0.51469806  0.73608481  0.22079649    -0.13200
F2592       F  0.48341223  0.73845997  0.22364134    -0.15500
F2593       F  0.51925134  0.72855980  0.27571399    -0.15500
F2594       F  0.48788576  0.73040636  0.27835794    -0.13200
C2595       C  0.20905053  0.21975373  0.64327077     0.24900
C2596       C  0.19824287  0.23178729  0.64107402    -0.23200
C2597       C  0.18792213  0.23551105  0.65311948     0.19800
C2598       C  0.18868190  0.22768833  0.66727481     0.24800
C2599       C  0.20010193  0.21624551  0.66984707    -0.23200
C2600       C  0.21009661  0.21218683  0.65752905     0.19700
F2601       F  0.22152516  0.20148641  0.65947308    -0.13200
F2602       F  0.21939853  0.21603212  0.63200801    -0.15500
F2603       F  0.17809835  0.23125726  0.67835212    -0.15500
F2604       F  0.17716072  0.24689006  0.65121114    -0.13200
C2605       C  0.28533252  0.28698173  0.64562776     0.24900
C2606       C  0.27405626  0.29811903  0.64166425    -0.23200
C2607       C  0.27166462  0.31089809  0.65157105     0.19800
C2608       C  0.28002810  0.31234186  0.66542630     0.24800
C2609       C  0.29078855  0.30086603  0.66982089    -0.23200
C2610       C  0.29360391  0.28831367  0.65963729     0.19700
F2611       F  0.30377616  0.27693343  0.66359840    -0.13200
F2612       F  0.28764898  0.27432997  0.63643148    -0.15500
F2613       F  0.27767228  0.32508877  0.67446372    -0.15500
F2614       F  0.26112424  0.32201252  0.64781570    -0.13200
C2615       C  0.20552671  0.20684096  0.35085936     0.24900
C2616       C  0.21256718  0.19452992  0.34245602    -0.23200
C2617       C  0.22417608  0.18577496  0.35012553     0.19800
C2618       C  0.22757842  0.18837101  0.36578824     0.24800
C2619       C  0.22008808  0.20023193  0.37416551    -0.23200
C2620       C  0.20894605  0.20937037  0.36654787     0.19700
F2621       F  0.20219768  0.22160236  0.37390227    -0.13200
F2622       F  0.19603445  0.21719893  0.34375078    -0.15500
F2623       F  0.23874364  0.17959150  0.37265145    -0.15500
F2624       F  0.23316131  0.17540282  0.34236288    -0.13200
C2625       C  0.28769804  0.28546319  0.36292718     0.24900
C2626       C  0.27826522  0.27221654  0.36477852    -0.23200
C2627       C  0.27342207  0.26380937  0.35151116     0.19800
C2628       C  0.27868464  0.26802386  0.33680471     0.24800
C2629       C  0.28895270  0.28061332  0.33511973    -0.23200
C2630       C  0.29312382  0.28953234  0.34821382     0.19700
F2631       F  0.30322970  0.30162421  0.34683088    -0.13200
F2632       F  0.29269086  0.29371079  0.37546956    -0.15500
F2633       F  0.27477498  0.25903683  0.32437778    -0.15500
F2634       F  0.26395219  0.25120048  0.35281277    -0.13200
C2635       C  0.25031533  0.26463349  0.49650232     0.24900
C2636       C  0.23649150  0.26148852  0.48817959    -0.23200
C2637       C  0.22259801  0.25934346  0.49647685     0.19800
C2638       C  0.22252012  0.26009451  0.51268242     0.24800
C2639       C  0.23638613  0.26289366  0.52108382    -0.23200
C2640       C  0.25027615  0.26528160  0.51275096     0.19700
F2641       F  0.26400003  0.26764471  0.52029161    -0.13200
F2642       F  0.26405290  0.26640760  0.48898120    -0.15500
F2643       F  0.20870367  0.25847884  0.52008022    -0.15500
F2644       F  0.20892397  0.25686231  0.48887449    -0.13200
C2645       C  0.20451978  0.62885205  0.21457876     0.24900
C2646       C  0.21647625  0.62182786  0.20590984    -0.23200
C2647       C  0.22397830  0.63075025  0.19459089     0.19800
C2648       C  0.22055670  0.64644363  0.19271779     0.24800
C2649       C  0.20811940  0.65358816  0.20077412    -0.23200
C2650       C  0.20038601  0.64453403  0.21208225     0.19700
F2651       F  0.18974771  0.65103706  0.22168143    -0.13200
F2652       F  0.19753842  0.62092900  0.22619185    -0.15500
F2653       F  0.23024444  0.65476517  0.18352718    -0.15500
F2654       F  0.23524659  0.62442471  0.18555140    -0.13200
C2655       C  0.29706776  0.63257149  0.26110430     0.24900
C2656       C  0.28648043  0.62229733  0.26806476    -0.23200
C2657       C  0.27780021  0.62761206  0.28077795     0.19800
C2658       C  0.27985496  0.64273105  0.28661160     0.24800
C2659       C  0.29123847  0.65283093  0.28033035    -0.23200
C2660       C  0.29919038  0.64767185  0.26692502     0.19700
F2661       F  0.30864450  0.65743421  0.25896275    -0.13200
F2662       F  0.30529624  0.62807629  0.24845820    -0.15500
F2663       F  0.26959387  0.64769507  0.29743411    -0.15500
F2664       F  0.26640508  0.61859779  0.28690679    -0.13200
C2665       C  0.20036835  0.34115895  0.20944876     0.24900
C2666       C  0.21041389  0.34236467  0.22224027    -0.23200
C2667       C  0.21384571  0.32890264  0.23077714     0.19800
C2668       C  0.20868187  0.31424493  0.22567502     0.24800
C2669       C  0.20011979  0.31279376  0.21182745    -0.23200
C2670       C  0.19517387  0.32650596  0.20432294     0.19700
F2671       F  0.18627264  0.32564453  0.19130184    -0.13200
F2672       F  0.19689464  0.35395473  0.20099092    -0.15500
F2673       F  0.21349448  0.30143049  0.23340983    -0.15500
F2674       F  0.22312085  0.32984900  0.24352788    -0.13200
C2675       C  0.30176786  0.33764814  0.27618406     0.24900
C2676       C  0.28938583  0.34589511  0.28285230    -0.23200
C2677       C  0.28145390  0.33929856  0.29545046     0.19800
C2678       C  0.28567541  0.32449968  0.30099712     0.24800
C2679       C  0.29784502  0.31605248  0.29395705    -0.23200
C2680       C  0.30581094  0.32291621  0.28147242     0.19700
F2681       F  0.31713227  0.31509861  0.27376061    -0.13200
F2682       F  0.30980703  0.34375519  0.26414370    -0.15500
F2683       F  0.27789239  0.31852273  0.31324505    -0.15500
F2684       F  0.26915731  0.34679801  0.30187405    -0.13200
C2685       C  0.25694640  0.47565536  0.25497760     0.24900
C2686       C  0.24322685  0.46667473  0.25359896    -0.23200
C2687       C  0.22902274  0.47455325  0.25121876     0.19800
C2688       C  0.22856133  0.49087331  0.25016900     0.24800
C2689       C  0.24228018  0.49984050  0.25149518    -0.23200
C2690       C  0.25648923  0.49196410  0.25389695     0.19700
F2691       F  0.27013721  0.49996650  0.25463667    -0.13200
F2692       F  0.27098373  0.46866542  0.25680755    -0.15500
F2693       F  0.21454848  0.49790564  0.24831741    -0.15500
F2694       F  0.21540930  0.46650824  0.25036705    -0.13200
C2695       C  0.65027627  0.20465634  0.21525682     0.24900
C2696       C  0.64405872  0.21836086  0.20886299    -0.23200
C2697       C  0.65311463  0.22685190  0.19836556     0.19800
C2698       C  0.66807561  0.22202264  0.19452596     0.24800
C2699       C  0.67432974  0.20819721  0.20063583    -0.23200
C2700       C  0.66532224  0.19960873  0.21116843     0.19700
F2701       F  0.67093249  0.18624940  0.21730225    -0.13200
F2702       F  0.64203382  0.19644061  0.22580961    -0.15500
F2703       F  0.67659321  0.23118304  0.18497800    -0.15500
F2704       F  0.64744236  0.23992830  0.19166628    -0.13200
C2705       C  0.64235216  0.28900703  0.29660498     0.24900
C2706       C  0.64113965  0.27695842  0.28562623    -0.23200
C2707       C  0.65475274  0.26925790  0.28080006     0.19800
C2708       C  0.66943890  0.27432007  0.28590486     0.24800
C2709       C  0.67076172  0.28734900  0.29570559    -0.23200
C2710       C  0.65706880  0.29420064  0.30159090     0.19700
F2711       F  0.65799952  0.30665922  0.31131521    -0.13200
F2712       F  0.62941544  0.29669862  0.30135341    -0.15500
F2713       F  0.68236980  0.26751634  0.27996206    -0.15500
F2714       F  0.65386254  0.25744042  0.27031319    -0.13200
C2715       C  0.36169165  0.19960983  0.21429240     0.24900
C2716       C  0.36580072  0.18941627  0.22623116    -0.23200
C2717       C  0.35464763  0.17865102  0.23138396     0.19800
C2718       C  0.33967400  0.17813985  0.22485248     0.24800
C2719       C  0.33548129  0.18808958  0.21252112    -0.23200
C2720       C  0.34668471  0.19928652  0.20785242     0.19700
F2721       F  0.34291094  0.21095171  0.19804946    -0.13200
F2722       F  0.37173103  0.21091723  0.20975630    -0.15500
F2723       F  0.32904402  0.16858621  0.23147703    -0.15500
F2724       F  0.35806534  0.16892041  0.24323496    -0.13200
C2725       C  0.35799477  0.25461395  0.31049718     0.24900
C2726       C  0.36774070  0.25990404  0.29865317    -0.23200
C2727       C  0.36244561  0.27185974  0.28900943     0.19800
C2728       C  0.34749399  0.27811980  0.29093333     0.24800
C2729       C  0.33763010  0.27307736  0.30305991    -0.23200
C2730       C  0.34307719  0.26076624  0.31246117     0.19700
F2731       F  0.33367465  0.25360656  0.32279955    -0.13200
F2732       F  0.36268023  0.24285101  0.31982951    -0.15500
F2733       F  0.34234000  0.28821860  0.28006561    -0.15500
F2734       F  0.37118646  0.27658032  0.27684183    -0.13200
C2735       C  0.49632491  0.23328418  0.26759399     0.24900
C2736       C  0.48769471  0.23168543  0.25376516    -0.23200
C2737       C  0.49584712  0.23047602  0.23970183     0.19800
C2738       C  0.51221156  0.23111094  0.23945706     0.24800
C2739       C  0.52085215  0.23284990  0.25330630    -0.23200
C2740       C  0.51265569  0.23382198  0.26737270     0.19700
F2741       F  0.52043989  0.23483586  0.28105684    -0.13200
F2742       F  0.48898794  0.23381880  0.28147202    -0.15500
F2743       F  0.51951823  0.23060001  0.22556442    -0.15500
F2744       F  0.48796832  0.22924052  0.22608143    -0.13200
C2745       C  0.72357819  0.76648628  0.76856485     0.24900
C2746       C  0.73938965  0.77011421  0.76511734    -0.23200
C2747       C  0.74621075  0.78243193  0.77391574     0.19800
C2748       C  0.73707883  0.79239081  0.78303316     0.24800
C2749       C  0.72099864  0.78983901  0.78459268    -0.23200
C2750       C  0.71457713  0.77630379  0.77797322     0.19700
F2751       F  0.69937829  0.77267607  0.78021689    -0.13200
F2752       F  0.71660358  0.75332395  0.76319341    -0.15500
F2753       F  0.74403543  0.80462675  0.79035118    -0.15500
F2754       F  0.76160629  0.78573144  0.77280111    -0.13200
C2755       C  0.75459040  0.73768672  0.77199151     0.24900
C2756       C  0.76050295  0.75067969  0.76379239    -0.23200
C2757       C  0.77629930  0.75473510  0.76682300     0.19800
C2758       C  0.78584526  0.74541959  0.77609557     0.24800
C2759       C  0.78042249  0.73123067  0.78225104    -0.23200
C2760       C  0.76449913  0.72767072  0.78021843     0.19700
F2761       F  0.75841317  0.71416903  0.78555543    -0.13200
F2762       F  0.73926726  0.73387071  0.77109834    -0.15500
F2763       F  0.80038347  0.75079087  0.77940870    -0.15500
F2764       F  0.78273617  0.76804614  0.76139187    -0.13200
C2765       C  0.77014578  0.76407570  0.73187432     0.24900
C2766       C  0.75881152  0.77113319  0.74162474    -0.23200
C2767       C  0.75552096  0.78714573  0.73879650     0.19800
C2768       C  0.76390532  0.79561399  0.72773098     0.24800
C2769       C  0.77511664  0.78834038  0.71849641    -0.23200
C2770       C  0.77807504  0.77251788  0.72059933     0.19700
F2771       F  0.78885815  0.76516812  0.71173895    -0.13200
F2772       F  0.77385017  0.74884821  0.73330638    -0.15500
F2773       F  0.76037196  0.81080957  0.72539065    -0.15500
F2774       F  0.74353972  0.79464926  0.74571674    -0.13200
C2775       C  0.72682998  0.75776614  0.73344927     0.24900
C2776       C  0.73919363  0.75054083  0.74176733    -0.23200
C2777       C  0.74269791  0.73488474  0.73743784     0.19800
C2778       C  0.73348446  0.72676012  0.72662860     0.24800
C2779       C  0.72048433  0.73372140  0.71979838    -0.23200
C2780       C  0.71745150  0.74937786  0.72298394     0.19700
F2781       F  0.70557225  0.75671326  0.71564808    -0.13200
F2782       F  0.72353833  0.77304352  0.73562052    -0.15500
F2783       F  0.73773072  0.71217214  0.72229215    -0.15500
F2784       F  0.75552700  0.72741014  0.74269919    -0.13200
C2785       C  0.27267264  0.76556132  0.75155909     0.24900
C2786       C  0.25632165  0.76333281  0.75324009    -0.23200
C2787       C  0.24890791  0.77288135  0.76451710     0.19800
C2788       C  0.25754576  0.78210540  0.77494660     0.24800
C2789       C  0.27388595  0.78241608  0.77443329    -0.23200
C2790       C  0.28128272  0.77423335  0.76247926     0.19700
F2791       F  0.29700024  0.77371586  0.76183776    -0.13200
F2792       F  0.28061209  0.75984626  0.73925955    -0.15500
F2793       F  0.24988702  0.79038725  0.78596754    -0.15500
F2794       F  0.23320627  0.77260337  0.76615002    -0.13200
C2795       C  0.23944766  0.73775218  0.76956224     0.24900
C2796       C  0.23645826  0.74024701  0.75351111    -0.23200
C2797       C  0.22465198  0.73075756  0.74666013     0.19800
C2798       C  0.21461979  0.72174457  0.75571830     0.24800
C2799       C  0.21658341  0.72100480  0.77179934    -0.23200
C2800       C  0.22958114  0.72835763  0.77847618     0.19700
F2801       F  0.23260973  0.72677739  0.79379387    -0.13200
F2802       F  0.25213031  0.74383619  0.77683915    -0.15500
F2803       F  0.20275245  0.71385217  0.74874127    -0.15500
F2804       F  0.22193314  0.73102952  0.73120937    -0.13200
C2805       C  0.24303665  0.77221692  0.72178524     0.24900
C2806       C  0.23579256  0.76293526  0.73325725    -0.23200
C2807       C  0.21948027  0.76523611  0.73540671     0.19800
C2808       C  0.21079062  0.77453950  0.72522796     0.24800
C2809       C  0.21802585  0.78226782  0.71295646    -0.23200
C2810       C  0.23429081  0.78139701  0.71166293     0.19700
F2811       F  0.24182526  0.78952063  0.70051805    -0.13200
F2812       F  0.25869363  0.77179566  0.71976041    -0.15500
F2813       F  0.19514478  0.77566027  0.72719239    -0.15500
F2814       F  0.21174796  0.75917479  0.74761984    -0.13200
C2815       C  0.26838264  0.73147131  0.73903733     0.24900
C2816       C  0.25609263  0.74044989  0.73263733    -0.23200
C2817       C  0.25248686  0.73736675  0.71681954     0.19800
C2818       C  0.26206336  0.72796860  0.70763966     0.24800
C2819       C  0.27611423  0.72175530  0.71342800    -0.23200
C2820       C  0.27865471  0.72296302  0.72954445     0.19700
F2821       F  0.29126762  0.71640033  0.73630827    -0.13200
F2822       F  0.27130717  0.73189745  0.75448196    -0.15500
F2823       F  0.25710222  0.72457464  0.69304907    -0.15500
F2824       F  0.23929746  0.74271420  0.71001102    -0.13200
C2825       C  0.75736597  0.28174182  0.77532025     0.24900
C2826       C  0.76358930  0.27274490  0.76288528    -0.23200
C2827       C  0.77909084  0.27654638  0.75832034     0.19800
C2828       C  0.78805344  0.28755160  0.76659051     0.24800
C2829       C  0.78197738  0.29534652  0.77949811    -0.23200
C2830       C  0.76651606  0.29250002  0.78365159     0.19700
F2831       F  0.76009856  0.30043929  0.79566531    -0.13200
F2832       F  0.74238456  0.27990511  0.77983879    -0.15500
F2833       F  0.80256298  0.29113773  0.76149881    -0.15500
F2834       F  0.78553538  0.27056094  0.74529182    -0.13200
C2835       C  0.74768682  0.24669114  0.78048088     0.24900
C2836       C  0.74367369  0.24944939  0.76468396    -0.23200
C2837       C  0.73135658  0.24016685  0.75844654     0.19800
C2838       C  0.72275480  0.22995975  0.76766044     0.24800
C2839       C  0.72608360  0.22841138  0.78343848    -0.23200
C2840       C  0.73868589  0.23673294  0.78973988     0.19700
F2841       F  0.74285335  0.23455920  0.80475027    -0.13200
F2842       F  0.76076411  0.25277298  0.78702000    -0.15500
F2843       F  0.71095621  0.22160493  0.76110977    -0.15500
F2844       F  0.72713837  0.24124702  0.74337512    -0.13200
C2845       C  0.75747102  0.24560925  0.72751986     0.24900
C2846       C  0.76213491  0.24942440  0.74292691    -0.23200
C2847       C  0.77498053  0.24087741  0.74886013     0.19800
C2848       C  0.78414765  0.23128208  0.73926278     0.24800
C2849       C  0.78045197  0.22921733  0.72347527    -0.23200
C2850       C  0.76639718  0.23575989  0.71814045     0.19700
F2851       F  0.76079805  0.23221691  0.70380749    -0.13200
F2852       F  0.74392515  0.25075765  0.72129753    -0.15500
F2853       F  0.79680853  0.22434920  0.74554860    -0.15500
F2854       F  0.77926189  0.24239972  0.76392909    -0.13200
C2855       C  0.74717087  0.28025878  0.73141456     0.24900
C2856       C  0.74159436  0.27194870  0.74445662    -0.23200
C2857       C  0.72608107  0.27530879  0.74905890     0.19800
C2858       C  0.71639211  0.28488110  0.74015969     0.24800
C2859       C  0.72136485  0.29108316  0.72589251    -0.23200
C2860       C  0.73709461  0.28885359  0.72187591     0.19700
F2861       F  0.74281099  0.29431977  0.70835572    -0.13200
F2862       F  0.76228054  0.27911795  0.72705417    -0.15500
F2863       F  0.70215511  0.28838923  0.74597781    -0.15500
F2864       F  0.72008787  0.26993192  0.76250479    -0.13200
C2865       C  0.75951981  0.76757334  0.26683993     0.24900
C2866       C  0.76697023  0.75634042  0.25727543    -0.23200
C2867       C  0.78333145  0.75453086  0.25963746     0.19800
C2868       C  0.79185636  0.76500147  0.26906350     0.24800
C2869       C  0.78436875  0.77708980  0.27709627    -0.23200
C2870       C  0.76804234  0.77783298  0.27630771     0.19700
F2871       F  0.76018847  0.78858781  0.28478462    -0.13200
F2872       F  0.74381035  0.76923569  0.26646557    -0.15500
F2873       F  0.80757315  0.76348198  0.26999497    -0.15500
F2874       F  0.79127197  0.74235292  0.25356389    -0.13200
C2875       C  0.77834943  0.74137128  0.22537622     0.24900
C2876       C  0.76623880  0.73530200  0.23469408    -0.23200
C2877       C  0.76211781  0.71948307  0.23180759     0.19800
C2878       C  0.77066341  0.71012247  0.22166442     0.24800
C2879       C  0.78442194  0.71552705  0.21457283    -0.23200
C2880       C  0.78769525  0.73162919  0.21611262     0.19700
F2881       F  0.79991876  0.73830639  0.20885028    -0.13200
F2882       F  0.78173978  0.75680812  0.22579671    -0.15500
F2883       F  0.76463479  0.69590096  0.21816898    -0.15500
F2884       F  0.74906178  0.71292930  0.23773263    -0.13200
C2885       C  0.74931095  0.77322344  0.23274606     0.24900
C2886       C  0.74704460  0.75685960  0.23436220    -0.23200
C2887       C  0.73548113  0.75005982  0.22460478     0.19800
C2888       C  0.72461926  0.75924391  0.21677897     0.24800
C2889       C  0.72530269  0.77553270  0.21772007    -0.23200
C2890       C  0.73832591  0.78240979  0.22490089     0.19700
F2891       F  0.74023343  0.79808393  0.22481475    -0.13200
F2892       F  0.76220999  0.78054553  0.23832488    -0.15500
F2893       F  0.71307431  0.75211064  0.20856028    -0.15500
F2894       F  0.73354507  0.73443875  0.22378294    -0.13200
C2895       C  0.72951754  0.73842514  0.25841803     0.24900
C2896       C  0.74597868  0.73658510  0.25691688    -0.23200
C2897       C  0.75305471  0.72540553  0.26672057     0.19800
C2898       C  0.74416662  0.71577537  0.27630122     0.24800
C2899       C  0.72786934  0.71697774  0.27670633    -0.23200
C2900       C  0.72066144  0.72837496  0.26769280     0.19700
F2901       F  0.70501947  0.73048107  0.26862009    -0.13200
F2902       F  0.72181275  0.75055097  0.25205420    -0.15500
F2903       F  0.75156426  0.70507803  0.28516453    -0.15500
F2904       F  0.76872893  0.72339601  0.26668240    -0.13200
C2905       C  0.27412249  0.24999458  0.77149450     0.24900
C2906       C  0.26165854  0.24386456  0.76244331    -0.23200
C2907       C  0.25786293  0.22792107  0.76499025     0.19800
C2908       C  0.26759915  0.21828632  0.77389161     0.24800
C2909       C  0.28130138  0.22414480  0.78077248    -0.23200
C2910       C  0.28394653  0.24028827  0.78009745     0.19700
F2911       F  0.29617255  0.24680574  0.78782178    -0.13200
F2912       F  0.27764923  0.26536451  0.77116559    -0.15500
F2913       F  0.26362816  0.20311188  0.77547016    -0.15500
F2914       F  0.24455853  0.22145129  0.75931961    -0.13200
C2915       C  0.23052251  0.26007846  0.77109817     0.24900
C2916       C  0.24308010  0.26593893  0.76220286    -0.23200
C2917       C  0.24736559  0.28168063  0.76526311     0.19800
C2918       C  0.23822043  0.29138676  0.77461238     0.24800
C2919       C  0.22436595  0.28600665  0.78155152    -0.23200
C2920       C  0.22116481  0.26991915  0.78024547     0.19700
F2921       F  0.20887160  0.26343621  0.78756633    -0.13200
F2922       F  0.22671324  0.24476206  0.77040064    -0.15500
F2923       F  0.24361206  0.30600322  0.77744921    -0.15500
F2924       F  0.26088908  0.28787247  0.76003059    -0.13200
C2925       C  0.27923855  0.25988847  0.73686342     0.24900
C2926       C  0.26355814  0.26409914  0.73991991    -0.23200
C2927       C  0.25755143  0.27654973  0.73101083     0.19800
C2928       C  0.26731003  0.28613450  0.72214654     0.24800
C2929       C  0.28333483  0.28279275  0.72044024    -0.23200
C2930       C  0.28860241  0.26867543  0.72695570     0.19700
F2931       F  0.30265408  0.26258649  0.72317786    -0.13200
F2932       F  0.28567428  0.24672840  0.74258229    -0.15500
F2933       F  0.26071260  0.29872155  0.71551942    -0.15500
F2934       F  0.24220021  0.28020855  0.73166474    -0.13200
C2935       C  0.22594286  0.24858835  0.73620104     0.24900
C2936       C  0.24190622  0.24531992  0.73934382    -0.23200
C2937       C  0.24873007  0.23338104  0.73016130     0.19800
C2938       C  0.23981747  0.22395423  0.72026030     0.24800
C2939       C  0.22362864  0.22591374  0.71894571    -0.23200
C2940       C  0.21696380  0.23887325  0.72641291     0.19700
F2941       F  0.20164072  0.24216008  0.72453592    -0.13200
F2942       F  0.21884752  0.26141263  0.74200392    -0.15500
F2943       F  0.24720026  0.21275285  0.71192677    -0.15500
F2944       F  0.26409619  0.23007226  0.73129829    -0.13200
C2945       C  0.25874964  0.75906485  0.21787159     0.24900
C2946       C  0.26334834  0.75312675  0.23251537    -0.23200
C2947       C  0.27758666  0.75895244  0.23870379     0.19800
C2948       C  0.28760248  0.76815801  0.22990105     0.24800
C2949       C  0.28385923  0.77227913  0.21457820    -0.23200
C2950       C  0.26889505  0.76823678  0.20900853     0.19700
F2951       F  0.26376715  0.77317514  0.19503700    -0.13200
F2952       F  0.24414419  0.75656919  0.21225966    -0.15500
F2953       F  0.30070243  0.77374909  0.23687578    -0.15500
F2954       F  0.28168767  0.75652410  0.25366499    -0.13200
C2955       C  0.24150320  0.77003669  0.25233823     0.24900
C2956       C  0.24185054  0.75339797  0.25315529    -0.23200
C2957       C  0.23217729  0.74655572  0.26469674     0.19800
C2958       C  0.22320962  0.75563325  0.27481745     0.24800
C2959       C  0.22335371  0.77190653  0.27387792    -0.23200
C2960       C  0.23243878  0.77893882  0.26250017     0.19700
F2961       F  0.23296560  0.79469690  0.26146181    -0.13200
F2962       F  0.24975160  0.77827061  0.24186670    -0.15500
F2963       F  0.21408278  0.74841138  0.28538701    -0.15500
F2964       F  0.23137132  0.73083889  0.26616128    -0.13200
C2965       C  0.26428612  0.73300918  0.26951840     0.24900
C2966       C  0.26301321  0.73168923  0.25296615    -0.23200
C2967       C  0.27335873  0.72064449  0.24628946     0.19800
C2968       C  0.28087560  0.70933926  0.25515444     0.24800
C2969       C  0.27965175  0.70928702  0.27129453    -0.23200
C2970       C  0.27186635  0.72164733  0.27842716     0.19700
F2971       F  0.27161513  0.72286150  0.29410156    -0.13200
F2972       F  0.25988210  0.74602082  0.27728642    -0.15500
F2973       F  0.29026126  0.69892200  0.24789192    -0.15500
F2974       F  0.27831035  0.72189197  0.23160822    -0.13200
C2975       C  0.22509889  0.73019458  0.23311396     0.24900
C2976       C  0.24163010  0.73186144  0.23146291    -0.23200
C2977       C  0.24792787  0.72321985  0.21870522     0.19800
C2978       C  0.23937755  0.71154824  0.21094528     0.24800
C2979       C  0.22382508  0.70868216  0.21461881    -0.23200
C2980       C  0.21682626  0.71805525  0.22583587     0.19700
F2981       F  0.20180977  0.71545888  0.22990968    -0.13200
F2982       F  0.21615473  0.74101593  0.24019954    -0.15500
F2983       F  0.24619336  0.70348551  0.19923508    -0.15500
F2984       F  0.26129930  0.72758041  0.21170598    -0.13200
C2985       C  0.77144037  0.26794831  0.25035187     0.24900
C2986       C  0.76109493  0.25820999  0.24173682    -0.23200
C2987       C  0.76068525  0.26070449  0.22542261     0.19800
C2988       C  0.77178027  0.27023734  0.21813813     0.24800
C2989       C  0.78313262  0.27830977  0.22679685    -0.23200
C2990       C  0.78236184  0.27755130  0.24302986     0.19700
F2991       F  0.79230668  0.28610008  0.25195461    -0.13200
F2992       F  0.77176729  0.26741163  0.26604223    -0.15500
F2993       F  0.77162765  0.27115166  0.20245738    -0.15500
F2994       F  0.74931690  0.25458374  0.21627553    -0.13200
C2995       C  0.75308627  0.22398137  0.27073922     0.24900
C2996       C  0.76055041  0.23457259  0.26059878    -0.23200
C2997       C  0.77708775  0.23345223  0.25978248     0.19800
C2998       C  0.78556753  0.22491872  0.27069190     0.24800
C2999       C  0.77807011  0.21598204  0.28191910    -0.23200
C3000       C  0.76168971  0.21511724  0.28139963     0.19700
F3001       F  0.75391976  0.20606502  0.29163558    -0.13200
F3002       F  0.73730591  0.22312776  0.27123969    -0.15500
F3003       F  0.80122484  0.22633751  0.27078958    -0.15500
F3004       F  0.78540805  0.24014622  0.24829107    -0.13200
C3005       C  0.74132528  0.21715641  0.21692434     0.24900
C3006       C  0.72497959  0.21673198  0.21635512    -0.23200
C3007       C  0.71671165  0.22430343  0.22816527     0.19800
C3008       C  0.72454090  0.23306691  0.23964683     0.24800
C3009       C  0.74104223  0.23515244  0.23927531    -0.23200
C3010       C  0.74920653  0.22588534  0.22831281     0.19700
F3011       F  0.76500444  0.22594734  0.22799231    -0.13200
F3012       F  0.74977919  0.20899268  0.20641145    -0.15500
F3013       F  0.71573866  0.23883241  0.25132814    -0.15500
F3014       F  0.70090898  0.22355999  0.22843878    -0.13200
C3015       C  0.72929109  0.26724505  0.25332251     0.24900
C3016       C  0.73969436  0.25688819  0.26084114    -0.23200
C3017       C  0.74062021  0.25827475  0.27733882     0.19800
C3018       C  0.73089569  0.26850317  0.28562296     0.24800
C3019       C  0.72051812  0.27834977  0.27791497    -0.23200
C3020       C  0.71977917  0.27750919  0.26167336     0.19700
F3021       F  0.70982091  0.28680356  0.25374823    -0.13200
F3022       F  0.72822342  0.26742297  0.23764555    -0.15500
F3023       F  0.73255184  0.26963324  0.30123280    -0.15500
F3024       F  0.75183780  0.25108628  0.28570156    -0.13200
C3025       C  0.22395111  0.24438154  0.24022612     0.24900
C3026       C  0.24023868  0.24731712  0.24232334    -0.23200
C3027       C  0.24687260  0.25880209  0.23254101     0.19800
C3028       C  0.23778872  0.26732300  0.22208967     0.24800
C3029       C  0.22171009  0.26469290  0.22071290    -0.23200
C3030       C  0.21487924  0.25328482  0.22999984     0.19700
F3031       F  0.19948104  0.24992610  0.22837877    -0.13200
F3032       F  0.21667648  0.23216759  0.24695043    -0.15500
F3033       F  0.24481534  0.27824728  0.21320741    -0.15500
F3034       F  0.26232607  0.26202927  0.23310953    -0.13200
C3035       C  0.27797668  0.23263346  0.23909286     0.24900
C3036       C  0.26210181  0.22841660  0.24164100    -0.23200
C3037       C  0.25599747  0.21675381  0.23154715     0.19800
C3038       C  0.26575835  0.20790058  0.22176330     0.24800
C3039       C  0.28189510  0.21105414  0.22086676    -0.23200
C3040       C  0.28745955  0.22424432  0.22892751     0.19700
F3041       F  0.30213180  0.22965569  0.22652581    -0.13200
F3042       F  0.28453140  0.24553391  0.24553600    -0.15500
F3043       F  0.25925451  0.19608635  0.21348580    -0.15500
F3044       F  0.24055098  0.21331824  0.23169816    -0.13200
C3045       C  0.23091868  0.23404626  0.27505512     0.24900
C3046       C  0.24148818  0.22681140  0.26457677    -0.23200
C3047       C  0.24354841  0.21043967  0.26632395     0.19800
C3048       C  0.23469240  0.20189897  0.27704327     0.24800
C3049       C  0.22416999  0.20932791  0.28699038    -0.23200
C3050       C  0.22246346  0.22546966  0.28595125     0.19700
F3051       F  0.21245391  0.23301033  0.29551639    -0.13200
F3052       F  0.22857747  0.24964266  0.27465105    -0.15500
F3053       F  0.23706682  0.18634495  0.27830017    -0.15500
F3054       F  0.25488514  0.20256349  0.25878380    -0.13200
C3055       C  0.27250052  0.23990737  0.27419650     0.24900
C3056       C  0.26120419  0.24757232  0.26491769    -0.23200
C3057       C  0.25962054  0.26389659  0.26738144     0.19800
C3058       C  0.27019868  0.27219029  0.27689892     0.24800
C3059       C  0.28225070  0.26449445  0.28481050    -0.23200
C3060       C  0.28281417  0.24818203  0.28378636     0.19700
F3061       F  0.29344687  0.24006866  0.29213213    -0.13200
F3062       F  0.27423891  0.22424030  0.27332514    -0.15500
F3063       F  0.26883488  0.28788676  0.27798431    -0.15500
F3064       F  0.24767194  0.27202870  0.26113457    -0.13200
loop_ 
_geom_bond_atom_site_label_1 
_geom_bond_atom_site_label_2 
_geom_bond_distance 
_geom_bond_site_symmetry_2 
_ccdc_geom_bond_type 
C1         C3026   1.579       .  S
C1         C3036   1.583       .  S
C1         C3046   1.580       .  S
C1         C3056   1.576       .  S
C2         C2986   1.581       .  S
C2         C2996   1.577       .  S
C2         C3009   1.577       .  S
C2         C3016   1.580       .  S
C3         C2946   1.566       .  S
C3         C2956   1.586       .  S
C3         C2966   1.601       .  S
C3         C2976   1.607       .  S
C4         C2906   1.577       .  S
C4         C2916   1.579       .  S
C4         C2926   1.575       .  S
C4         C2936   1.576       .  S
C5         C2866   1.579       .  S
C5         C2876   1.576       .  S
C5         C2886   1.575       .  S
C5         C2896   1.576       .  S
C6         C2826   1.577       .  S
C6         C2836   1.576       .  S
C6         C2846   1.579       .  S
C6         C2856   1.577       .  S
C7         C2786   1.576       .  S
C7         C2796   1.573       .  S
C7         C2806   1.574       .  S
C7         C2816   1.577       .  S
C8         C2746   1.573       .  S
C8         C2756   1.572       .  S
C8         C2766   1.574       .  S
C8         C2776   1.574       .  S
N9           N10   1.321       .  A
N9           C13   1.351       .  A
N9          Cu17   2.097       .  S
N10          C11   1.341       .  A
N10         Cu16   2.058       .  S
C11          C12   1.381       .  A
C11          H14   1.084       .  S
C12          C13   1.394       .  A
C12        C2716   1.486       .  S
C13          H15   1.080       .  S
Cu16         N19   2.058       .  S
Cu17         N27   2.098       .  S
Cu18         N20   2.089       .  S
Cu18         N26   2.091       .  S
N19          N20   1.320       .  A
N19          C23   1.341       .  A
N20          C21   1.352       .  A
C21          C22   1.391       .  A
C21          H24   1.080       .  S
C22          C23   1.381       .  A
C22        C2726   1.482       .  S
C23          H25   1.080       .  S
N26          N27   1.324       .  A
N26          C30   1.347       .  A
N27          C28   1.350       .  A
C28          C29   1.390       .  A
C28          H31   1.080       .  S
C29          C30   1.388       .  A
C29        C2736   1.493       .  S
C30          H32   1.080       .  S
N33          N34   1.321       .  A
N33          C37   1.353       .  A
N33         Cu41   2.096       .  S
N34          C35   1.339       .  A
N34         Cu40   2.050       .  S
C35          C36   1.377       .  A
C35          H38   1.086       .  S
C36          C37   1.391       .  A
C36        C2706   1.479       .  S
C37          H39   1.083       .  S
Cu40         N43   2.050       .  S
Cu41         N51   2.100       .  S
Cu42         N44   2.088       .  S
Cu42         N50   2.092       .  S
N43          N44   1.320       .  A
N43          C47   1.338       .  A
N44          C45   1.352       .  A
C45          C46   1.392       .  A
C45          H48   1.081       .  S
C46          C47   1.381       .  A
C46        C2696   1.484       .  S
C47          H49   1.081       .  S
N50          N51   1.324       .  A
N50          C54   1.349       .  A
N51          C52   1.348       .  A
C52          C53   1.390       .  A
C52          H55   1.081       .  S
C53          C54   1.390       .  A
C53        C2739   1.496       .  S
C54          H56   1.080       .  S
N57          N58   1.320       .  A
N57          C61   1.354       .  A
N57         Cu65   2.098       .  S
N58          C59   1.339       .  A
N58         Cu64   2.049       .  S
C59          C60   1.378       .  A
C59          H62   1.084       .  S
C60          C61   1.392       .  A
C60        C2666   1.480       .  S
C61          H63   1.083       .  S
Cu64         N67   2.044       .  S
Cu65         N75   2.101       .  S
Cu66         N68   2.109       .  S
Cu66         N74   2.113       .  S
N67          N68   1.320       .  A
N67          C71   1.338       .  A
N68          C69   1.356       .  A
C69          C70   1.395       .  A
C69          H72   1.079       .  S
C70          C71   1.378       .  A
C70        C2676   1.484       .  S
C71          H73   1.080       .  S
N74          N75   1.325       .  A
N74          C78   1.352       .  A
N75          C76   1.349       .  A
C76          C77   1.390       .  A
C76          H79   1.080       .  S
C77          C78   1.394       .  A
C77        C2686   1.502       .  S
C78          H80   1.080       .  S
N81          N82   1.318       .  A
N81          C85   1.349       .  A
N81         Cu89   2.085       .  S
N82          C83   1.342       .  A
N82         Cu88   2.052       .  S
C83          C84   1.383       .  A
C83          H86   1.081       .  S
C84          C85   1.393       .  A
C84        C2656   1.486       .  S
C85          H87   1.078       .  S
Cu88         N91   2.050       .  S
Cu89         N99   2.088       .  S
Cu90         N92   2.111       .  S
Cu90         N98   2.115       .  S
N91          N92   1.321       .  A
N91          C95   1.336       .  A
N92          C93   1.358       .  A
C93          C94   1.399       .  A
C93          H96   1.081       .  S
C94          C95   1.380       .  A
C94        C2646   1.494       .  S
C95          H97   1.082       .  S
N98          N99   1.324       .  A
N98         C102   1.353       .  A
N99         C100   1.347       .  A
C100        C101   1.388       .  A
C100        H103   1.080       .  S
C101        C102   1.395       .  A
C101       C2689   1.501       .  S
C102        H104   1.080       .  S
N105        N106   1.319       .  A
N105        C109   1.351       .  A
N105       Cu113   2.089       .  S
N106        C107   1.339       .  A
N106       Cu112   2.049       .  S
C107        C108   1.380       .  A
C107        H110   1.082       .  S
C108        C109   1.394       .  A
C108       C2619   1.485       .  S
C109        H111   1.079       .  S
Cu112       N115   2.056       .  S
Cu113       N123   2.091       .  S
Cu114       N116   2.087       .  S
Cu114       N122   2.090       .  S
N115        N116   1.320       .  A
N115        C119   1.340       .  A
N116        C117   1.351       .  A
C117        C118   1.391       .  A
C117        H120   1.082       .  S
C118        C119   1.380       .  A
C118       C2626   1.483       .  S
C119        H121   1.083       .  S
N122        N123   1.324       .  A
N122        C126   1.349       .  A
N123        C124   1.347       .  A
C124        C125   1.387       .  A
C124        H127   1.080       .  S
C125        C126   1.388       .  A
C125       C2636   1.490       .  S
C126        H128   1.079       .  S
N129        N130   1.322       .  A
N129        C133   1.350       .  A
N129       Cu137   2.087       .  S
N130        C131   1.341       .  A
N130       Cu136   2.062       .  S
C131        C132   1.380       .  A
C131        H134   1.084       .  S
C132        C133   1.388       .  A
C132       C2606   1.479       .  S
C133        H135   1.080       .  S
Cu136       N139   2.059       .  S
Cu137       N147   2.087       .  S
Cu138       N140   2.088       .  S
Cu138       N146   2.089       .  S
N139        N140   1.321       .  A
N139        C143   1.342       .  A
N140        C141   1.348       .  A
C141        C142   1.390       .  A
C141        H144   1.081       .  S
C142        C143   1.381       .  A
C142       C2596   1.481       .  S
C143        H145   1.083       .  S
N146        N147   1.322       .  A
N146        C150   1.346       .  A
N147        C148   1.348       .  A
C148        C149   1.390       .  A
C148        H151   1.080       .  S
C149        C150   1.390       .  A
C149       C2639   1.494       .  S
C150        H152   1.080       .  S
N153        N154   1.318       .  A
N153        C157   1.354       .  A
N153       Cu161   2.085       .  S
N154        C155   1.334       .  A
N154       Cu160   2.042       .  S
C155        C156   1.380       .  A
C155        H158   1.083       .  S
C156        C157   1.395       .  A
C156       C2566   1.483       .  S
C157        H159   1.081       .  S
Cu160       N163   2.045       .  S
Cu161       N171   2.092       .  S
Cu162       N164   2.101       .  S
Cu162       N170   2.106       .  S
N163        N164   1.320       .  A
N163        C167   1.339       .  A
N164        C165   1.354       .  A
C165        C166   1.394       .  A
C165        H168   1.081       .  S
C166        C167   1.378       .  A
C166       C2576   1.483       .  S
C167        H169   1.082       .  S
N170        N171   1.326       .  A
N170        C174   1.352       .  A
N171        C172   1.347       .  A
C172        C173   1.386       .  A
C172        H175   1.079       .  S
C173        C174   1.390       .  A
C173       C2586   1.492       .  S
C174        H176   1.079       .  S
N177        N178   1.319       .  A
N177        C181   1.354       .  A
N177       Cu185   2.094       .  S
N178        C179   1.338       .  A
N178       Cu184   2.052       .  S
C179        C180   1.382       .  A
C179        H182   1.080       .  S
C180        C181   1.396       .  A
C180       C2556   1.492       .  S
C181        H183   1.080       .  S
Cu184       N187   2.050       .  S
Cu185       N195   2.097       .  S
Cu186       N188   2.094       .  S
Cu186       N194   2.097       .  S
N187        N188   1.320       .  A
N187        C191   1.340       .  A
N188        C189   1.352       .  A
C189        C190   1.391       .  A
C189        H192   1.082       .  S
C190        C191   1.377       .  A
C190       C2546   1.475       .  S
C191        H193   1.083       .  S
N194        N195   1.324       .  A
N194        C198   1.348       .  A
N195        C196   1.349       .  A
C196        C197   1.391       .  A
C196        H199   1.081       .  S
C197        C198   1.391       .  A
C197       C2589   1.498       .  S
C198        H200   1.080       .  S
N201        N202   1.320       .  A
N201        C205   1.354       .  A
N201       Cu209   2.100       .  S
N202        C203   1.340       .  A
N202       Cu208   2.053       .  S
C203        C204   1.380       .  A
C203        H206   1.081       .  S
C204        C205   1.394       .  A
C204       C2526   1.485       .  S
C205        H207   1.080       .  S
Cu208       N211   2.052       .  S
Cu209       N219   2.104       .  S
Cu210       N212   2.093       .  S
Cu210       N218   2.096       .  S
N211        N212   1.319       .  A
N211        C215   1.338       .  A
N212        C213   1.353       .  A
C213        C214   1.396       .  A
C213        H216   1.080       .  S
C214        C215   1.383       .  A
C214       C2516   1.491       .  S
C215        H217   1.081       .  S
N218        N219   1.325       .  A
N218        C222   1.350       .  A
N219        C220   1.349       .  A
C220        C221   1.391       .  A
C220        H223   1.078       .  S
C221        C222   1.389       .  A
C221       C2536   1.496       .  S
C222        H224   1.079       .  S
N225        N226   1.320       .  A
N225        C229   1.349       .  A
N225       Cu233   2.084       .  S
N226        C227   1.339       .  A
N226       Cu232   2.048       .  S
C227        C228   1.378       .  A
C227        H230   1.082       .  S
C228        C229   1.389       .  A
C228       C2509   1.472       .  S
C229        H231   1.081       .  S
Cu232       N235   2.055       .  S
Cu233       N243   2.086       .  S
Cu234       N236   2.107       .  S
Cu234       N242   2.110       .  S
N235        N236   1.321       .  A
N235        C239   1.340       .  A
N236        C237   1.355       .  A
C237        C238   1.395       .  A
C237        H240   1.081       .  S
C238        C239   1.379       .  A
C238       C2499   1.487       .  S
C239        H241   1.084       .  S
N242        N243   1.323       .  A
N242        C246   1.352       .  A
N243        C244   1.346       .  A
C244        C245   1.389       .  A
C244        H247   1.078       .  S
C245        C246   1.395       .  A
C245       C2539   1.502       .  S
C246        H248   1.079       .  S
N249        N250   1.317       .  A
N249        C253   1.350       .  A
N249       Cu257   2.075       .  S
N250        C251   1.336       .  A
N250       Cu256   2.045       .  S
C251        C252   1.383       .  A
C251        H254   1.080       .  S
C252        C253   1.394       .  A
C252       C2466   1.486       .  S
C253        H255   1.080       .  S
Cu256       N259   2.047       .  S
Cu257       N267   2.081       .  S
Cu258       N260   2.114       .  S
Cu258       N266   2.119       .  S
N259        N260   1.319       .  A
N259        C263   1.337       .  A
N260        C261   1.357       .  A
C261        C262   1.401       .  A
C261        H264   1.080       .  S
C262        C263   1.382       .  A
C262       C2476   1.497       .  S
C263        H265   1.081       .  S
N266        N267   1.325       .  A
N266        C270   1.352       .  A
N267        C268   1.345       .  A
C268        C269   1.387       .  A
C268        H271   1.078       .  S
C269        C270   1.395       .  A
C269       C2486   1.499       .  S
C270        H272   1.079       .  S
N273        N274   1.319       .  A
N273        C277   1.350       .  A
N273       Cu281   2.088       .  S
N274        C275   1.340       .  A
N274       Cu280   2.049       .  S
C275        C276   1.381       .  A
C275        H278   1.081       .  S
C276        C277   1.393       .  A
C276       C2456   1.482       .  S
C277        H279   1.080       .  S
Cu280       N283   2.053       .  S
Cu281       N291   2.092       .  S
Cu282       N284   2.096       .  S
Cu282       N290   2.100       .  S
N283        N284   1.319       .  A
N283        C287   1.336       .  A
N284        C285   1.355       .  A
C285        C286   1.398       .  A
C285        H288   1.080       .  S
C286        C287   1.385       .  A
C286       C2446   1.496       .  S
C287        H289   1.080       .  S
N290        N291   1.324       .  A
N290        C294   1.349       .  A
N291        C292   1.348       .  A
C292        C293   1.389       .  A
C292        H295   1.079       .  S
C293        C294   1.391       .  A
C293       C2489   1.496       .  S
C294        H296   1.079       .  S
N297        N298   1.320       .  A
N297        C301   1.350       .  A
N297       Cu305   2.088       .  S
N298        C299   1.341       .  A
N298       Cu304   2.055       .  S
C299        C300   1.382       .  A
C299        H302   1.081       .  S
C300        C301   1.392       .  A
C300       C2416   1.486       .  S
C301        H303   1.080       .  S
Cu304       N307   2.057       .  S
Cu305       N315   2.091       .  S
Cu306       N308   2.105       .  S
Cu306       N314   2.106       .  S
N307        N308   1.322       .  A
N307        C311   1.342       .  A
N308        C309   1.353       .  A
C309        C310   1.393       .  A
C309        H312   1.081       .  S
C310        C311   1.381       .  A
C310       C2426   1.487       .  S
C311        H313   1.080       .  S
N314        N315   1.324       .  A
N314        C318   1.352       .  A
N315        C316   1.347       .  A
C316        C317   1.388       .  A
C316        H319   1.077       .  S
C317        C318   1.392       .  A
C317       C2436   1.495       .  S
C318        H320   1.078       .  S
N321        N322   1.321       .  A
N321        C325   1.353       .  A
N321       Cu329   2.097       .  S
N322        C323   1.339       .  A
N322       Cu328   2.056       .  S
C323        C324   1.381       .  A
C323        H326   1.081       .  S
C324        C325   1.393       .  A
C324       C2406   1.486       .  S
C325        H327   1.081       .  S
Cu328       N331   2.055       .  S
Cu329       N339   2.100       .  S
Cu330       N332   2.090       .  S
Cu330       N338   2.093       .  S
N331        N332   1.320       .  A
N331        C335   1.341       .  A
N332        C333   1.351       .  A
C333        C334   1.393       .  A
C333        H336   1.080       .  S
C334        C335   1.383       .  A
C334       C2396   1.486       .  S
C335        H337   1.081       .  S
N338        N339   1.323       .  A
N338        C342   1.347       .  A
N339        C340   1.351       .  A
C340        C341   1.392       .  A
C340        H343   1.077       .  S
C341        C342   1.390       .  A
C341       C2439   1.498       .  S
C342        H344   1.077       .  S
C345       C2459   1.538       .  S
C345        C346   1.533       .  S
C345        C351   1.529       .  S
C345        C349   1.532       .  S
C346        H353   1.085       .  S
C346        C347   1.367       .  D
C347        C348   1.553       .  S
C347       C2409   1.498       .  S
C348        C352   1.556       .  S
C348        C350   1.556       .  S
C348        H354   1.105       .  S
C349        H355   1.084       .  S
C349        C350   1.373       .  D
C350       C2819   1.517       .  S
C351        H356   1.084       .  S
C351        C352   1.363       .  D
C352       C2386   1.486       .  S
N357        N358   1.322       .  A
N357        C361   1.354       .  A
N357       Cu365   2.102       .  S
N358        C359   1.340       .  A
N358       Cu364   2.056       .  S
C359        C360   1.379       .  A
C359        H362   1.081       .  S
C360        C361   1.392       .  A
C360       C2356   1.483       .  S
C361        H363   1.081       .  S
Cu364       N367   2.055       .  S
Cu365       N375   2.104       .  S
Cu366       N368   2.086       .  S
Cu366       N374   2.087       .  S
N367        N368   1.320       .  A
N367        C371   1.343       .  A
N368        C369   1.348       .  A
C369        C370   1.390       .  A
C369        H372   1.081       .  S
C370        C371   1.381       .  A
C370       C2366   1.481       .  S
C371        H373   1.082       .  S
N374        N375   1.324       .  A
N374        C378   1.348       .  A
N375        C376   1.350       .  A
C376        C377   1.391       .  A
C376        H379   1.079       .  S
C377        C378   1.386       .  A
C377       C2376   1.491       .  S
C378        H380   1.080       .  S
N381        N382   1.321       .  A
N381        C385   1.356       .  A
N381       Cu389   2.111       .  S
N382        C383   1.340       .  A
N382       Cu388   2.053       .  S
C383        C384   1.382       .  A
C383        H386   1.080       .  S
C384        C385   1.397       .  A
C384       C2339   1.494       .  S
C385        H387   1.080       .  S
Cu388       N391   2.051       .  S
Cu389       N399   2.113       .  S
Cu390       N392   2.070       .  S
Cu390       N398   2.073       .  S
N391        N392   1.319       .  A
N391        C395   1.339       .  A
N392        C393   1.347       .  A
C393        C394   1.389       .  A
C393        H396   1.081       .  S
C394        C395   1.382       .  A
C394       C2346   1.481       .  S
C395        H397   1.081       .  S
N398        N399   1.323       .  A
N398        C402   1.344       .  A
N399        C400   1.353       .  A
C400        C401   1.396       .  A
C400        H403   1.079       .  S
C401        C402   1.385       .  A
C401       C2379   1.496       .  S
C402        H404   1.080       .  S
N405        N406   1.321       .  A
N405        C409   1.350       .  A
N405       Cu413   2.090       .  S
N406        C407   1.341       .  A
N406       Cu412   2.052       .  S
C407        C408   1.381       .  A
C407        H410   1.080       .  S
C408        C409   1.391       .  A
C408       C2306   1.484       .  S
C409        H411   1.081       .  S
Cu412       N415   2.049       .  S
Cu413       N423   2.092       .  S
Cu414       N416   2.078       .  S
Cu414       N422   2.080       .  S
N415        N416   1.320       .  A
N415        C419   1.339       .  A
N416        C417   1.349       .  A
C417        C418   1.391       .  A
C417        H420   1.080       .  S
C418        C419   1.381       .  A
C418       C2319   1.483       .  S
C419        H421   1.082       .  S
N422        N423   1.323       .  A
N422        C426   1.345       .  A
N423        C424   1.350       .  A
C424        C425   1.391       .  A
C424        H427   1.077       .  S
C425        C426   1.385       .  A
C425       C2326   1.488       .  S
C426        H428   1.078       .  S
N429        N430   1.321       .  A
N429        C433   1.351       .  A
N429       Cu437   2.096       .  S
N430        C431   1.339       .  A
N430       Cu436   2.049       .  S
C431        C432   1.380       .  A
C431        H434   1.082       .  S
C432        C433   1.394       .  A
C432       C2286   1.485       .  S
C433        H435   1.079       .  S
Cu436       N439   2.053       .  S
Cu437       N447   2.098       .  S
Cu438       N440   2.080       .  S
Cu438       N446   2.081       .  S
N439        N440   1.320       .  A
N439        C443   1.342       .  A
N440        C441   1.348       .  A
C441        C442   1.388       .  A
C441        H444   1.082       .  S
C442        C443   1.380       .  A
C442       C2296   1.477       .  S
C443        H445   1.081       .  S
N446        N447   1.323       .  A
N446        C450   1.346       .  A
N447        C448   1.350       .  A
C448        C449   1.391       .  A
C448        H451   1.078       .  S
C449        C450   1.386       .  A
C449       C2329   1.490       .  S
C450        H452   1.078       .  S
N453        N454   1.322       .  A
N453        C457   1.357       .  A
N453       Cu461   2.116       .  S
N454        C455   1.339       .  A
N454       Cu460   2.053       .  S
C455        C456   1.377       .  A
C455        H458   1.082       .  S
C456        C457   1.397       .  A
C456       C2266   1.487       .  S
C457        H459   1.080       .  S
Cu460       N463   2.056       .  S
Cu461       N471   2.118       .  S
Cu462       N464   2.090       .  S
Cu462       N470   2.093       .  S
N463        N464   1.319       .  A
N463        C467   1.342       .  A
N464        C465   1.350       .  A
C465        C466   1.394       .  A
C465        H468   1.080       .  S
C466        C467   1.383       .  A
C466       C2259   1.489       .  S
C467        H469   1.081       .  S
N470        N471   1.324       .  A
N470        C474   1.347       .  A
N471        C472   1.354       .  A
C472        C473   1.396       .  A
C472        H475   1.080       .  S
C473        C474   1.389       .  A
C473       C2276   1.503       .  S
C474        H476   1.080       .  S
N477        N478   1.321       .  A
N477        C481   1.350       .  A
N477       Cu485   2.097       .  S
N478        C479   1.344       .  A
N478       Cu484   2.056       .  S
C479        C480   1.380       .  A
C479        H482   1.082       .  S
C480        C481   1.391       .  A
C480       C2246   1.482       .  S
C481        H483   1.081       .  S
Cu484       N487   2.056       .  S
Cu485       N495   2.099       .  S
Cu486       N488   2.104       .  S
Cu486       N494   2.105       .  S
N487        N488   1.322       .  A
N487        C491   1.339       .  A
N488        C489   1.354       .  A
C489        C490   1.394       .  A
C489        H492   1.080       .  S
C490        C491   1.379       .  A
C490       C2236   1.486       .  S
C491        H493   1.083       .  S
N494        N495   1.323       .  A
N494        C498   1.350       .  A
N495        C496   1.351       .  A
C496        C497   1.392       .  A
C496        H499   1.080       .  S
C497        C498   1.393       .  A
C497       C2279   1.502       .  S
C498        H500   1.080       .  S
N501        N502   1.320       .  A
N501        C505   1.353       .  A
N501       Cu509   2.094       .  S
N502        C503   1.342       .  A
N502       Cu508   2.063       .  S
C503        C504   1.382       .  A
C503        H506   1.082       .  S
C504        C505   1.392       .  A
C504       C2389   1.488       .  S
C505        H507   1.082       .  S
Cu508       N511   2.052       .  S
Cu509       N519   2.097       .  S
Cu510       N512   2.096       .  S
Cu510       N518   2.099       .  S
N511        N512   1.319       .  A
N511        C515   1.338       .  A
N512        C513   1.351       .  A
C513        C514   1.398       .  A
C513        H516   1.080       .  S
C514        C515   1.387       .  A
C514       C2216   1.500       .  S
C515        H517   1.077       .  S
N518        N519   1.324       .  A
N518        C522   1.350       .  A
N519        C520   1.349       .  A
C520        C521   1.390       .  A
C520        H523   1.079       .  S
C521        C522   1.390       .  A
C521       C2226   1.495       .  S
C522        H524   1.080       .  S
N525        N526   1.321       .  A
N525        C529   1.351       .  A
N525       Cu533   2.100       .  S
N526        C527   1.340       .  A
N526       Cu532   2.047       .  S
C527        C528   1.377       .  A
C527        H530   1.084       .  S
C528        C529   1.391       .  A
C528       C2196   1.477       .  S
C529        H531   1.084       .  S
Cu532       N535   2.049       .  S
Cu533       N543   2.102       .  S
Cu534       N536   2.094       .  S
Cu534       N542   2.097       .  S
N535        N536   1.321       .  A
N535        C539   1.340       .  A
N536        C537   1.353       .  A
C537        C538   1.391       .  A
C537        H540   1.081       .  S
C538        C539   1.377       .  A
C538       C2206   1.479       .  S
C539        H541   1.081       .  S
N542        N543   1.324       .  A
N542        C546   1.348       .  A
N543        C544   1.350       .  A
C544        C545   1.392       .  A
C544        H547   1.080       .  S
C545        C546   1.391       .  A
C545       C2229   1.500       .  S
C546        H548   1.079       .  S
N549        N550   1.321       .  A
N549        C553   1.349       .  A
N549       Cu557   2.083       .  S
N550        C551   1.340       .  A
N550       Cu556   2.057       .  S
C551        C552   1.382       .  A
C551        H554   1.082       .  S
C552        C553   1.389       .  A
C552       C2166   1.483       .  S
C553        H555   1.082       .  S
Cu556       N559   2.059       .  S
Cu557       N567   2.085       .  S
Cu558       N560   2.071       .  S
Cu558       N566   2.074       .  S
N559        N560   1.320       .  A
N559        C563   1.339       .  A
N560        C561   1.349       .  A
C561        C562   1.388       .  A
C561        H564   1.081       .  S
C562        C563   1.382       .  A
C562       C2176   1.480       .  S
C563        H565   1.082       .  S
N566        N567   1.323       .  A
N566        C570   1.345       .  A
N567        C568   1.348       .  A
C568        C569   1.388       .  A
C568        H571   1.078       .  S
C569        C570   1.384       .  A
C569       C2186   1.482       .  S
C570        H572   1.078       .  S
N573        N574   1.320       .  A
N573        C577   1.353       .  A
N573       Cu581   2.098       .  S
N574        C575   1.340       .  A
N574       Cu580   2.050       .  S
C575        C576   1.378       .  A
C575        H578   1.084       .  S
C576        C577   1.392       .  A
C576       C2156   1.481       .  S
C577        H579   1.082       .  S
Cu580       N583   2.045       .  S
Cu581       N591   2.101       .  S
Cu582       N584   2.072       .  S
Cu582       N590   2.075       .  S
N583        N584   1.318       .  A
N583        C587   1.336       .  A
N584        C585   1.348       .  A
C585        C586   1.394       .  A
C585        H588   1.080       .  S
C586        C587   1.383       .  A
C586       C2146   1.486       .  S
C587        H589   1.082       .  S
N590        N591   1.324       .  A
N590        C594   1.344       .  A
N591        C592   1.350       .  A
C592        C593   1.391       .  A
C592        H595   1.078       .  S
C593        C594   1.384       .  A
C593       C2189   1.488       .  S
C594        H596   1.078       .  S
N597        N598   1.318       .  A
N597        C601   1.350       .  A
N597       Cu605   2.083       .  S
N598        C599   1.338       .  A
N598       Cu604   2.047       .  S
C599        C600   1.384       .  A
C599        H602   1.079       .  S
C600        C601   1.396       .  A
C600       C2129   1.491       .  S
C601        H603   1.077       .  S
Cu604       N607   2.047       .  S
Cu605       N615   2.086       .  S
Cu606       N608   2.109       .  S
Cu606       N614   2.112       .  S
N607        N608   1.320       .  A
N607        C611   1.341       .  A
N608        C609   1.354       .  A
C609        C610   1.395       .  A
C609        H612   1.081       .  S
C610        C611   1.379       .  A
C610       C2116   1.486       .  S
C611        H613   1.080       .  S
N614        N615   1.325       .  A
N614        C618   1.352       .  A
N615        C616   1.346       .  A
C616        C617   1.386       .  A
C616        H619   1.080       .  S
C617        C618   1.394       .  A
C617       C2136   1.496       .  S
C618        H620   1.080       .  S
N621        N622   1.319       .  A
N621        C625   1.348       .  A
N621       Cu629   2.074       .  S
N622        C623   1.340       .  A
N622       Cu628   2.055       .  S
C623        C624   1.384       .  A
C623        H626   1.080       .  S
C624        C625   1.391       .  A
C624       C2096   1.484       .  S
C625        H627   1.079       .  S
Cu628       N631   2.054       .  S
Cu629       N639   2.075       .  S
Cu630       N632   2.111       .  S
Cu630       N638   2.113       .  S
N631        N632   1.321       .  A
N631        C635   1.340       .  A
N632        C633   1.355       .  A
C633        C634   1.395       .  A
C633        H636   1.081       .  S
C634        C635   1.379       .  A
C634       C2106   1.486       .  S
C635        H637   1.081       .  S
N638        N639   1.323       .  A
N638        C642   1.352       .  A
N639        C640   1.345       .  A
C640        C641   1.387       .  A
C640        H643   1.079       .  S
C641        C642   1.396       .  A
C641       C2139   1.499       .  S
C642        H644   1.080       .  S
N645        N646   1.322       .  A
N645        C649   1.352       .  A
N645       Cu653   2.102       .  S
N646        C647   1.341       .  A
N646       Cu652   2.056       .  S
C647        C648   1.380       .  A
C647        H650   1.082       .  S
C648        C649   1.392       .  A
C648       C2076   1.485       .  S
C649        H651   1.082       .  S
Cu652       N655   2.056       .  S
Cu653       N663   2.102       .  S
Cu654       N656   2.091       .  S
Cu654       N662   2.093       .  S
N655        N656   1.320       .  A
N655        C659   1.343       .  A
N656        C657   1.350       .  A
C657        C658   1.391       .  A
C657        H660   1.079       .  S
C658        C659   1.381       .  A
C658       C2066   1.483       .  S
C659        H661   1.080       .  S
N662        N663   1.323       .  A
N662        C666   1.347       .  A
N663        C664   1.352       .  A
C664        C665   1.392       .  A
C664        H667   1.081       .  S
C665        C666   1.389       .  A
C665       C2086   1.496       .  S
C666        H668   1.081       .  S
N669        N670   1.321       .  A
N669        C673   1.349       .  A
N669       Cu677   2.086       .  S
N670        C671   1.341       .  A
N670       Cu676   2.054       .  S
C671        C672   1.379       .  A
C671        H674   1.083       .  S
C672        C673   1.391       .  A
C672       C2046   1.479       .  S
C673        H675   1.080       .  S
Cu676       N679   2.058       .  S
Cu677       N687   2.088       .  S
Cu678       N680   2.102       .  S
Cu678       N686   2.104       .  S
N679        N680   1.321       .  A
N679        C683   1.343       .  A
N680        C681   1.352       .  A
C681        C682   1.394       .  A
C681        H684   1.080       .  S
C682        C683   1.383       .  A
C682       C2056   1.490       .  S
C683        H685   1.079       .  S
N686        N687   1.323       .  A
N686        C690   1.352       .  A
N687        C688   1.346       .  A
C688        C689   1.387       .  A
C688        H691   1.080       .  S
C689        C690   1.392       .  A
C689       C2089   1.494       .  S
C690        H692   1.081       .  S
C693       C2109   1.546       .  S
C693        C694   1.543       .  S
C693        C699   1.551       .  S
C693        C697   1.539       .  S
C694        H701   1.086       .  S
C694        C695   1.368       .  D
C695        C696   1.542       .  S
C695       C2209   1.485       .  S
C696        C700   1.539       .  S
C696        C698   1.538       .  S
C696        H702   1.111       .  S
C697        H703   1.086       .  S
C697        C698   1.362       .  D
C698       C2779   1.483       .  S
C699        H704   1.080       .  S
C699        C700   1.369       .  D
C700       C2059   1.494       .  S
N705        N706   1.320       .  A
N705        C709   1.355       .  A
N705       Cu713   2.105       .  S
N706        C707   1.338       .  A
N706       Cu712   2.049       .  S
C707        C708   1.379       .  A
C707        H710   1.081       .  S
C708        C709   1.395       .  A
C708       C2016   1.486       .  S
C709        H711   1.081       .  S
Cu712       N715   2.057       .  S
Cu713       N723   2.108       .  S
Cu714       N716   2.098       .  S
Cu714       N722   2.102       .  S
N715        N716   1.319       .  A
N715        C719   1.341       .  A
N716        C717   1.354       .  A
C717        C718   1.397       .  A
C717        H720   1.079       .  S
C718        C719   1.385       .  A
C718       C2026   1.495       .  S
C719        H721   1.079       .  S
N722        N723   1.325       .  A
N722        C726   1.348       .  A
N723        C724   1.352       .  A
C724        C725   1.392       .  A
C724        H727   1.080       .  S
C725        C726   1.390       .  A
C725       C2036   1.498       .  S
C726        H728   1.080       .  S
N729        N730   1.318       .  A
N729        C733   1.352       .  A
N729       Cu737   2.091       .  S
N730        C731   1.337       .  A
N730       Cu736   2.046       .  S
C731        C732   1.382       .  A
C731        H734   1.083       .  S
C732        C733   1.397       .  A
C732       C2006   1.490       .  S
C733        H735   1.081       .  S
Cu736       N739   2.048       .  S
Cu737       N747   2.096       .  S
Cu738       N740   2.108       .  S
Cu738       N746   2.113       .  S
N739        N740   1.319       .  A
N739        C743   1.338       .  A
N740        C741   1.356       .  A
C741        C742   1.399       .  A
C741        H744   1.080       .  S
C742        C743   1.381       .  A
C742       C1996   1.494       .  S
C743        H745   1.081       .  S
N746        N747   1.325       .  A
N746        C750   1.353       .  A
N747        C748   1.347       .  A
C748        C749   1.388       .  A
C748        H751   1.080       .  S
C749        C750   1.393       .  A
C749       C2039   1.499       .  S
C750        H752   1.080       .  S
N753        N754   1.320       .  A
N753        C757   1.351       .  A
N753       Cu761   2.093       .  S
N754        C755   1.340       .  A
N754       Cu760   2.050       .  S
C755        C756   1.380       .  A
C755        H758   1.083       .  S
C756        C757   1.393       .  A
C756       C1966   1.483       .  S
C757        H759   1.081       .  S
Cu760       N763   2.053       .  S
Cu761       N771   2.095       .  S
Cu762       N764   2.068       .  S
Cu762       N770   2.070       .  S
N763        N764   1.320       .  A
N763        C767   1.339       .  A
N764        C765   1.349       .  A
C765        C766   1.385       .  A
C765        H768   1.079       .  S
C766        C767   1.379       .  A
C766       C1976   1.472       .  S
C767        H769   1.078       .  S
N770        N771   1.323       .  A
N770        C774   1.344       .  A
N771        C772   1.348       .  A
C772        C773   1.391       .  A
C772        H775   1.080       .  S
C773        C774   1.384       .  A
C773       C1986   1.488       .  S
C774        H776   1.080       .  S
N777        N778   1.320       .  A
N777        C781   1.351       .  A
N777       Cu785   2.090       .  S
N778        C779   1.340       .  A
N778       Cu784   2.051       .  S
C779        C780   1.384       .  A
C779        H782   1.080       .  S
C780        C781   1.392       .  A
C780       C1959   1.489       .  S
C781        H783   1.081       .  S
Cu784       N787   2.054       .  S
Cu785       N795   2.092       .  S
Cu786       N788   2.073       .  S
Cu786       N794   2.074       .  S
N787        N788   1.321       .  A
N787        C791   1.342       .  A
N788        C789   1.347       .  A
C789        C790   1.385       .  A
C789        H792   1.079       .  S
C790        C791   1.379       .  A
C790       C1949   1.471       .  S
C791        H793   1.078       .  S
N794        N795   1.323       .  A
N794        C798   1.345       .  A
N795        C796   1.348       .  A
C796        C797   1.388       .  A
C796        H799   1.080       .  S
C797        C798   1.384       .  A
C797       C1989   1.482       .  S
C798        H800   1.080       .  S
N801        N802   1.320       .  A
N801        C805   1.352       .  A
N801       Cu809   2.089       .  S
N802        C803   1.338       .  A
N802       Cu808   2.044       .  S
C803        C804   1.379       .  A
C803        H806   1.080       .  S
C804        C805   1.392       .  A
C804       C1916   1.481       .  S
C805        H807   1.081       .  S
Cu808       N811   2.051       .  S
Cu809       N819   2.093       .  S
Cu810       N812   2.081       .  S
Cu810       N818   2.084       .  S
N811        N812   1.320       .  A
N811        C815   1.340       .  A
N812        C813   1.350       .  A
C813        C814   1.389       .  A
C813        H816   1.081       .  S
C814        C815   1.379       .  A
C814       C1926   1.477       .  S
C815        H817   1.082       .  S
N818        N819   1.323       .  A
N818        C822   1.346       .  A
N819        C820   1.347       .  A
C820        C821   1.389       .  A
C820        H823   1.081       .  S
C821        C822   1.388       .  A
C821       C1936   1.492       .  S
C822        H824   1.080       .  S
N825        N826   1.321       .  A
N825        C829   1.349       .  A
N825       Cu833   2.083       .  S
N826        C827   1.342       .  A
N826       Cu832   2.061       .  S
C827        C828   1.381       .  A
C827        H830   1.080       .  S
C828        C829   1.390       .  A
C828       C1906   1.481       .  S
C829        H831   1.079       .  S
Cu832       N835   2.058       .  S
Cu833       N843   2.084       .  S
Cu834       N836   2.087       .  S
Cu834       N842   2.090       .  S
N835        N836   1.320       .  A
N835        C839   1.339       .  A
N836        C837   1.352       .  A
C837        C838   1.392       .  A
C837        H840   1.079       .  S
C838        C839   1.383       .  A
C838       C1896   1.487       .  S
C839        H841   1.079       .  S
N842        N843   1.322       .  A
N842        C846   1.347       .  A
N843        C844   1.347       .  A
C844        C845   1.390       .  A
C844        H847   1.080       .  S
C845        C846   1.390       .  A
C845       C1939   1.494       .  S
C846        H848   1.081       .  S
N849        N850   1.317       .  A
N849        C853   1.348       .  A
N849       Cu857   2.070       .  S
N850        C851   1.338       .  A
N850       Cu856   2.054       .  S
C851        C852   1.388       .  A
C851        H854   1.079       .  S
C852        C853   1.395       .  A
C852       C1866   1.495       .  S
C853        H855   1.079       .  S
Cu856       N859   2.049       .  S
Cu857       N867   2.074       .  S
Cu858       N860   2.088       .  S
Cu858       N866   2.092       .  S
N859        N860   1.319       .  A
N859        C863   1.337       .  A
N860        C861   1.352       .  A
C861        C862   1.395       .  A
C861        H864   1.080       .  S
C862        C863   1.383       .  A
C862       C1876   1.491       .  S
C863        H865   1.079       .  S
N866        N867   1.323       .  A
N866        C870   1.350       .  A
N867        C868   1.343       .  A
C868        C869   1.384       .  A
C868        H871   1.080       .  S
C869        C870   1.390       .  A
C869       C1886   1.486       .  S
C870        H872   1.080       .  S
N873        N874   1.320       .  A
N873        C877   1.350       .  A
N873       Cu881   2.084       .  S
N874        C875   1.340       .  A
N874       Cu880   2.054       .  S
C875        C876   1.380       .  A
C875        H878   1.082       .  S
C876        C877   1.390       .  A
C876       C1856   1.480       .  S
C877        H879   1.082       .  S
Cu880       N883   2.049       .  S
Cu881       N891   2.086       .  S
Cu882       N884   2.083       .  S
Cu882       N890   2.086       .  S
N883        N884   1.320       .  A
N883        C887   1.338       .  A
N884        C885   1.351       .  A
C885        C886   1.391       .  A
C885        H888   1.080       .  S
C886        C887   1.382       .  A
C886       C1846   1.484       .  S
C887        H889   1.078       .  S
N890        N891   1.323       .  A
N890        C894   1.346       .  A
N891        C892   1.347       .  A
C892        C893   1.388       .  A
C892        H895   1.080       .  S
C893        C894   1.389       .  A
C893       C1889   1.490       .  S
C894        H896   1.079       .  S
N897        N898   1.320       .  A
N897        C901   1.352       .  A
N897       Cu905   2.100       .  S
N898        C899   1.342       .  A
N898       Cu904   2.055       .  S
C899        C900   1.385       .  A
C899        H902   1.078       .  S
C900        C901   1.396       .  A
C900       C1816   1.496       .  S
C901        H903   1.081       .  S
Cu904       N907   2.057       .  S
Cu905       N915   2.102       .  S
Cu906       N908   2.107       .  S
Cu906       N914   2.107       .  S
N907        N908   1.322       .  A
N907        C911   1.342       .  A
N908        C909   1.353       .  A
C909        C910   1.392       .  A
C909        H912   1.084       .  S
C910        C911   1.380       .  A
C910       C1826   1.485       .  S
C911        H913   1.082       .  S
N914        N915   1.324       .  A
N914        C918   1.351       .  A
N915        C916   1.351       .  A
C916        C917   1.391       .  A
C916        H919   1.079       .  S
C917        C918   1.391       .  A
C917       C1836   1.499       .  S
C918        H920   1.080       .  S
N921        N922   1.321       .  A
N921        C925   1.355       .  A
N921       Cu929   2.104       .  S
N922        C923   1.338       .  A
N922       Cu928   2.050       .  S
C923        C924   1.380       .  A
C923        H926   1.080       .  S
C924        C925   1.396       .  A
C924       C1809   1.489       .  S
C925        H927   1.081       .  S
Cu928       N931   2.054       .  S
Cu929       N939   2.107       .  S
Cu930       N932   2.098       .  S
Cu930       N938   2.101       .  S
N931        N932   1.320       .  A
N931        C935   1.342       .  A
N932        C933   1.352       .  A
C933        C934   1.393       .  A
C933        H936   1.082       .  S
C934        C935   1.382       .  A
C934       C1796   1.487       .  S
C935        H937   1.081       .  S
N938        N939   1.323       .  A
N938        C942   1.349       .  A
N939        C940   1.352       .  A
C940        C941   1.395       .  A
C940        H943   1.079       .  S
C941        C942   1.392       .  A
C941       C1839   1.505       .  S
C942        H944   1.080       .  S
N945        N946   1.320       .  A
N945        C949   1.350       .  A
N945       Cu953   2.081       .  S
N946        C947   1.339       .  A
N946       Cu952   2.053       .  S
C947        C948   1.380       .  A
C947        H950   1.082       .  S
C948        C949   1.390       .  A
C948       C1776   1.481       .  S
C949        H951   1.080       .  S
Cu952       N955   2.052       .  S
Cu953       N963   2.084       .  S
Cu954       N956   2.085       .  S
Cu954       N962   2.088       .  S
N955        N956   1.320       .  A
N955        C959   1.340       .  A
N956        C957   1.350       .  A
C957        C958   1.390       .  A
C957        H960   1.082       .  S
C958        C959   1.380       .  A
C958       C1766   1.480       .  S
C959        H961   1.081       .  S
N962        N963   1.323       .  A
N962        C966   1.347       .  A
N963        C964   1.347       .  A
C964        C965   1.388       .  A
C964        H967   1.079       .  S
C965        C966   1.388       .  A
C965       C1786   1.488       .  S
C966        H968   1.079       .  S
N969        N970   1.321       .  A
N969        C973   1.348       .  A
N969       Cu977   2.086       .  S
N970        C971   1.342       .  A
N970       Cu976   2.058       .  S
C971        C972   1.379       .  A
C971        H974   1.082       .  S
C972        C973   1.388       .  A
C972       C1756   1.476       .  S
C973        H975   1.081       .  S
Cu976       N979   2.059       .  S
Cu977       N987   2.087       .  S
Cu978       N980   2.079       .  S
Cu978       N986   2.080       .  S
N979        N980   1.321       .  A
N979        C983   1.340       .  A
N980        C981   1.349       .  A
C981        C982   1.388       .  A
C981        H984   1.081       .  S
C982        C983   1.380       .  A
C982       C1749   1.477       .  S
C983        H985   1.083       .  S
N986        N987   1.322       .  A
N986        C990   1.346       .  A
N987        C988   1.347       .  A
C988        C989   1.390       .  A
C988        H991   1.079       .  S
C989        C990   1.387       .  A
C989       C1789   1.490       .  S
C990        H992   1.079       .  S
N993        N994   1.319       .  A
N993        C997   1.351       .  A
N993      Cu1001   2.089       .  S
N994        C995   1.339       .  A
N994      Cu1000   2.051       .  S
C995        C996   1.382       .  A
C995        H998   1.081       .  S
C996        C997   1.394       .  A
C996       C1716   1.486       .  S
C997        H999   1.080       .  S
Cu1000     N1003   2.054       .  S
Cu1001     N1011   2.092       .  S
Cu1002     N1004   2.089       .  S
Cu1002     N1010   2.092       .  S
N1003      N1004   1.320       .  A
N1003      C1007   1.339       .  A
N1004      C1005   1.351       .  A
C1005      C1006   1.393       .  A
C1005      H1008   1.080       .  S
C1006      C1007   1.381       .  A
C1006      C1726   1.485       .  S
C1007      H1009   1.080       .  S
N1010      N1011   1.323       .  A
N1010      C1014   1.350       .  A
N1011      C1012   1.346       .  A
C1012      C1013   1.388       .  A
C1012      H1015   1.077       .  S
C1013      C1014   1.390       .  A
C1013      C1736   1.492       .  S
C1014      H1016   1.078       .  S
N1017      N1018   1.320       .  A
N1017      C1021   1.353       .  A
N1017     Cu1025   2.095       .  S
N1018      C1019   1.338       .  A
N1018     Cu1024   2.054       .  S
C1019      C1020   1.382       .  A
C1019      H1022   1.080       .  S
C1020      C1021   1.395       .  A
C1020      C1696   1.490       .  S
C1021      H1023   1.079       .  S
Cu1024     N1027   2.054       .  S
Cu1025     N1035   2.098       .  S
Cu1026     N1028   2.085       .  S
Cu1026     N1034   2.087       .  S
N1027      N1028   1.319       .  A
N1027      C1031   1.341       .  A
N1028      C1029   1.349       .  A
C1029      C1030   1.392       .  A
C1029      H1032   1.080       .  S
C1030      C1031   1.382       .  A
C1030      C1706   1.484       .  S
C1031      H1033   1.081       .  S
N1034      N1035   1.323       .  A
N1034      C1038   1.346       .  A
N1035      C1036   1.351       .  A
C1036      C1037   1.391       .  A
C1036      H1039   1.078       .  S
C1037      C1038   1.388       .  A
C1037      C1739   1.494       .  S
C1038      H1040   1.077       .  S
N1041      N1042   1.319       .  A
N1041      C1045   1.350       .  A
N1041     Cu1049   2.083       .  S
N1042      C1043   1.338       .  A
N1042     Cu1048   2.047       .  S
C1043      C1044   1.380       .  A
C1043      H1046   1.082       .  S
C1044      C1045   1.391       .  A
C1044      C1676   1.478       .  S
C1045      H1047   1.080       .  S
Cu1048     N1051   2.054       .  S
Cu1049     N1059   2.086       .  S
Cu1050     N1052   2.088       .  S
Cu1050     N1058   2.091       .  S
N1051      N1052   1.320       .  A
N1051      C1055   1.340       .  A
N1052      C1053   1.351       .  A
C1053      C1054   1.390       .  A
C1053      H1056   1.082       .  S
C1054      C1055   1.379       .  A
C1054      C1666   1.479       .  S
C1055      H1057   1.082       .  S
N1058      N1059   1.324       .  A
N1058      C1062   1.349       .  A
N1059      C1060   1.346       .  A
C1060      C1061   1.387       .  A
C1060      H1063   1.079       .  S
C1061      C1062   1.389       .  A
C1061      C1686   1.489       .  S
C1062      H1064   1.079       .  S
N1065      N1066   1.320       .  A
N1065      C1069   1.351       .  A
N1065     Cu1073   2.093       .  S
N1066      C1067   1.341       .  A
N1066     Cu1072   2.054       .  S
C1067      C1068   1.382       .  A
C1067      H1070   1.082       .  S
C1068      C1069   1.393       .  A
C1068      C1656   1.486       .  S
C1069      H1071   1.081       .  S
Cu1072     N1075   2.052       .  S
Cu1073     N1083   2.096       .  S
Cu1074     N1076   2.085       .  S
Cu1074     N1082   2.088       .  S
N1075      N1076   1.319       .  A
N1075      C1079   1.338       .  A
N1076      C1077   1.351       .  A
C1077      C1078   1.394       .  A
C1077      H1080   1.080       .  S
C1078      C1079   1.382       .  A
C1078      C1649   1.486       .  S
C1079      H1081   1.081       .  S
N1082      N1083   1.324       .  A
N1082      C1086   1.346       .  A
N1083      C1084   1.350       .  A
C1084      C1085   1.390       .  A
C1084      H1087   1.079       .  S
C1085      C1086   1.388       .  A
C1085      C1689   1.492       .  S
C1086      H1088   1.079       .  S
C1089      C1679   1.535       .  S
C1089      C1090   1.535       .  S
C1089      C1095   1.544       .  S
C1089      C1093   1.534       .  S
C1090      H1097   1.085       .  S
C1090      C1091   1.363       .  D
C1091      C1092   1.546       .  S
C1091      C2049   1.486       .  S
C1092      C1096   1.538       .  S
C1092      C1094   1.551       .  S
C1092      H1098   1.106       .  S
C1093      H1099   1.084       .  S
C1093      C1094   1.370       .  D
C1094      C2759   1.512       .  S
C1095      H1100   1.084       .  S
C1095      C1096   1.367       .  D
C1096      C1769   1.483       .  S
C1101      C2099   1.537       .  S
C1101      C1102   1.536       .  S
C1101      C1107   1.541       .  S
C1101      C1105   1.537       .  S
C1102      H1109   1.086       .  S
C1102      C1103   1.364       .  D
C1103      C1104   1.542       .  S
C1103      C1669   1.482       .  S
C1104      C1108   1.542       .  S
C1104      C1106   1.538       .  S
C1104      H1110   1.110       .  S
C1105      H1111   1.087       .  S
C1105      C1106   1.364       .  D
C1106      C2769   1.484       .  S
C1107      H1112   1.080       .  S
C1107      C1108   1.369       .  D
C1108      C1729   1.486       .  S
C1113      C1719   1.542       .  S
C1113      C1114   1.544       .  S
C1113      C1119   1.544       .  S
C1113      C1117   1.538       .  S
C1114      H1121   1.085       .  S
C1114      C1115   1.372       .  D
C1115      C1116   1.546       .  S
C1115      C1779   1.493       .  S
C1116      C1120   1.538       .  S
C1116      C1118   1.540       .  S
C1116      H1122   1.108       .  S
C1117      H1123   1.086       .  S
C1117      C1118   1.366       .  D
C1118      C2749   1.496       .  S
C1119      H1124   1.083       .  S
C1119      C1120   1.360       .  D
C1120      C2199   1.479       .  S
N1125      N1126   1.318       .  A
N1125      C1129   1.349       .  A
N1125     Cu1133   2.077       .  S
N1126      C1127   1.340       .  A
N1126     Cu1132   2.054       .  S
C1127      C1128   1.385       .  A
C1127      H1130   1.080       .  S
C1128      C1129   1.393       .  A
C1128      C1616   1.490       .  S
C1129      H1131   1.078       .  S
Cu1132     N1135   2.051       .  S
Cu1133     N1143   2.081       .  S
Cu1134     N1136   2.117       .  S
Cu1134     N1142   2.119       .  S
N1135      N1136   1.320       .  A
N1135      C1139   1.340       .  A
N1136      C1137   1.357       .  A
C1137      C1138   1.399       .  A
C1137      H1140   1.077       .  S
C1138      C1139   1.382       .  A
C1138      C1626   1.496       .  S
C1139      H1141   1.078       .  S
N1142      N1143   1.323       .  A
N1142      C1146   1.354       .  A
N1143      C1144   1.345       .  A
C1144      C1145   1.387       .  A
C1144      H1147   1.081       .  S
C1145      C1146   1.397       .  A
C1145      C1636   1.501       .  S
C1146      H1148   1.080       .  S
N1149      N1150   1.321       .  A
N1149      C1153   1.354       .  A
N1149     Cu1157   2.098       .  S
N1150      C1151   1.340       .  A
N1150     Cu1156   2.060       .  S
C1151      C1152   1.382       .  A
C1151      H1154   1.083       .  S
C1152      C1153   1.393       .  A
C1152      C1606   1.488       .  S
C1153      H1155   1.082       .  S
Cu1156     N1159   2.054       .  S
Cu1157     N1167   2.100       .  S
Cu1158     N1160   2.103       .  S
Cu1158     N1166   2.107       .  S
N1159      N1160   1.321       .  A
N1159      C1163   1.341       .  A
N1160      C1161   1.352       .  A
C1161      C1162   1.395       .  A
C1161      H1164   1.080       .  S
C1162      C1163   1.379       .  A
C1162      C1596   1.483       .  S
C1163      H1165   1.083       .  S
N1166      N1167   1.323       .  A
N1166      C1170   1.350       .  A
N1167      C1168   1.349       .  A
C1168      C1169   1.393       .  A
C1168      H1171   1.079       .  S
C1169      C1170   1.397       .  A
C1169      C1639   1.509       .  S
C1170      H1172   1.078       .  S
C1173      C2549   1.542       .  S
C1173      C1174   1.533       .  S
C1173      C1179   1.543       .  S
C1173      C1177   1.544       .  S
C1174      H1181   1.086       .  S
C1174      C1175   1.368       .  D
C1175      C1176   1.543       .  S
C1175      C1759   1.487       .  S
C1176      C1180   1.542       .  S
C1176      C1178   1.542       .  S
C1176      H1182   1.110       .  S
C1177      H1183   1.084       .  S
C1177      C1178   1.368       .  D
C1178      C2889   1.494       .  S
C1179      H1184   1.085       .  S
C1179      C1180   1.364       .  D
C1180      C1629   1.483       .  S
C1185      C2449   1.541       .  S
C1185      C1186   1.539       .  S
C1185      C1191   1.551       .  S
C1185      C1189   1.535       .  S
C1186      H1193   1.087       .  S
C1186      C1187   1.359       .  D
C1187      C1188   1.536       .  S
C1187      C1929   1.478       .  S
C1188      C1192   1.550       .  S
C1188      C1190   1.538       .  S
C1188      H1194   1.109       .  S
C1189      H1195   1.087       .  S
C1189      C1190   1.360       .  D
C1190      C2809   1.492       .  S
C1191      H1196   1.081       .  S
C1191      C1192   1.382       .  D
C1192      C1659   1.502       .  S
C1197      C2239   1.542       .  S
C1197      C1198   1.533       .  S
C1197      C1203   1.542       .  S
C1197      C1201   1.533       .  S
C1198      H1205   1.086       .  S
C1198      C1199   1.364       .  D
C1199      C1200   1.547       .  S
C1199      C1699   1.488       .  S
C1200      C1204   1.550       .  S
C1200      C1202   1.554       .  S
C1200      H1206   1.108       .  S
C1201      H1207   1.085       .  S
C1201      C1202   1.371       .  D
C1202      C2849   1.513       .  S
C1203      H1208   1.083       .  S
C1203      C1204   1.367       .  D
C1204      C1829   1.486       .  S
C1209      C1709   1.540       .  S
C1209      C1210   1.540       .  S
C1209      C1215   1.540       .  S
C1209      C1213   1.535       .  S
C1210      H1217   1.084       .  S
C1210      C1211   1.368       .  D
C1211      C1212   1.550       .  S
C1211      C2496   1.492       .  S
C1212      C1216   1.545       .  S
C1212      C1214   1.544       .  S
C1212      H1218   1.111       .  S
C1213      H1219   1.087       .  S
C1213      C1214   1.363       .  D
C1214      C2839   1.488       .  S
C1215      H1220   1.084       .  S
C1215      C1216   1.366       .  D
C1216      C2029   1.487       .  S
C1221      C1646   1.538       .  S
C1221      C1222   1.535       .  S
C1221      C1227   1.537       .  S
C1221      C1225   1.537       .  S
C1222      H1229   1.086       .  S
C1222      C1223   1.360       .  D
C1223      C1224   1.544       .  S
C1223      C1879   1.478       .  S
C1224      C1228   1.552       .  S
C1224      C1226   1.543       .  S
C1224      H1230   1.110       .  S
C1225      H1231   1.087       .  S
C1225      C1226   1.366       .  D
C1226      C2799   1.491       .  S
C1227      H1232   1.082       .  S
C1227      C1228   1.370       .  D
C1228      C2399   1.491       .  S
C1233      C2149   1.538       .  S
C1233      C1234   1.529       .  S
C1233      C1239   1.543       .  S
C1233      C1237   1.537       .  S
C1234      H1241   1.087       .  S
C1234      C1235   1.359       .  D
C1235      C1236   1.543       .  S
C1235      C1979   1.475       .  S
C1236      C1240   1.543       .  S
C1236      C1238   1.551       .  S
C1236      H1242   1.102       .  S
C1237      H1243   1.082       .  S
C1237      C1238   1.375       .  D
C1238      C2879   1.522       .  S
C1239      H1244   1.079       .  S
C1239      C1240   1.367       .  D
C1240      C1746   1.487       .  S
C1245      C1619   1.540       .  S
C1245      C1246   1.544       .  S
C1245      C1251   1.539       .  S
C1245      C1249   1.536       .  S
C1246      H1253   1.080       .  S
C1246      C1247   1.372       .  D
C1247      C1248   1.550       .  S
C1247      C1969   1.496       .  S
C1248      C1252   1.543       .  S
C1248      C1250   1.544       .  S
C1248      H1254   1.109       .  S
C1249      H1255   1.086       .  S
C1249      C1250   1.365       .  D
C1250      C2869   1.500       .  S
C1251      H1256   1.086       .  S
C1251      C1252   1.362       .  D
C1252      C2119   1.485       .  S
C1257      C1869   1.540       .  S
C1257      C1258   1.537       .  S
C1257      C1263   1.546       .  S
C1257      C1261   1.535       .  S
C1258      H1265   1.087       .  S
C1258      C1259   1.359       .  D
C1259      C1260   1.540       .  S
C1259      C1919   1.482       .  S
C1260      C1264   1.554       .  S
C1260      C1262   1.550       .  S
C1260      H1266   1.106       .  S
C1261      H1267   1.087       .  S
C1261      C1262   1.362       .  D
C1262      C2789   1.497       .  S
C1263      H1268   1.075       .  S
C1263      C1264   1.375       .  D
C1264      C2219   1.510       .  S
C1269      C2069   1.544       .  S
C1269      C1270   1.550       .  S
C1269      C1275   1.543       .  S
C1269      C1273   1.537       .  S
C1270      H1277   1.079       .  S
C1270      C1271   1.371       .  D
C1271      C1272   1.543       .  S
C1271      C1819   1.499       .  S
C1272      C1276   1.546       .  S
C1272      C1274   1.542       .  S
C1272      H1278   1.108       .  S
C1273      H1279   1.087       .  S
C1273      C1274   1.361       .  D
C1274      C2829   1.489       .  S
C1275      H1280   1.085       .  S
C1275      C1276   1.366       .  D
C1276      C2019   1.494       .  S
C1281      C2506   1.543       .  S
C1281      C1282   1.541       .  S
C1281      C1287   1.536       .  S
C1281      C1285   1.536       .  S
C1282      H1289   1.076       .  S
C1282      C1283   1.367       .  D
C1283      C1284   1.547       .  S
C1283      C2249   1.494       .  S
C1284      C1288   1.546       .  S
C1284      C1286   1.555       .  S
C1284      H1290   1.105       .  S
C1285      H1291   1.084       .  S
C1285      C1286   1.371       .  D
C1286      C2859   1.516       .  S
C1287      H1292   1.086       .  S
C1287      C1288   1.365       .  D
C1288      C2079   1.492       .  S
C1293      C2126   1.539       .  S
C1293      C1294   1.535       .  S
C1293      C1299   1.537       .  S
C1293      C1297   1.535       .  S
C1294      H1301   1.086       .  S
C1294      C1295   1.367       .  D
C1295      C1296   1.550       .  S
C1295      C2159   1.489       .  S
C1296      C1300   1.547       .  S
C1296      C1298   1.548       .  S
C1296      H1302   1.110       .  S
C1297      H1303   1.087       .  S
C1297      C1298   1.363       .  D
C1298      C2899   1.492       .  S
C1299      H1304   1.078       .  S
C1299      C1300   1.366       .  D
C1300      C2559   1.489       .  S
C1305      C1909   1.538       .  S
C1305      C1306   1.539       .  S
C1305      C1311   1.540       .  S
C1305      C1309   1.532       .  S
C1306      H1313   1.084       .  S
C1306      C1307   1.368       .  D
C1307      C1308   1.549       .  S
C1307      C2599   1.495       .  S
C1308      C1312   1.541       .  S
C1308      C1310   1.547       .  S
C1308      H1314   1.107       .  S
C1309      H1315   1.086       .  S
C1309      C1310   1.368       .  D
C1310      C2939   1.505       .  S
C1311      H1316   1.084       .  S
C1311      C1312   1.364       .  D
C1312      C1806   1.477       .  S
C1317      C2649   1.546       .  S
C1317      C1318   1.541       .  S
C1317      C1323   1.548       .  S
C1317      C1321   1.539       .  S
C1318      H1325   1.085       .  S
C1318      C1319   1.359       .  D
C1319      C1320   1.538       .  S
C1319      C1859   1.486       .  S
C1320      C1324   1.550       .  S
C1320      C1322   1.543       .  S
C1320      H1326   1.108       .  S
C1321      H1327   1.086       .  S
C1321      C1322   1.363       .  D
C1322      C2979   1.491       .  S
C1323      H1328   1.082       .  S
C1323      C1324   1.379       .  D
C1324      C1956   1.504       .  S
C1329      C2419   1.542       .  S
C1329      C1330   1.545       .  S
C1329      C1335   1.538       .  S
C1329      C1333   1.537       .  S
C1330      H1337   1.084       .  S
C1330      C1331   1.367       .  D
C1331      C1332   1.543       .  S
C1331      C2359   1.487       .  S
C1332      C1336   1.548       .  S
C1332      C1334   1.552       .  S
C1332      H1338   1.106       .  S
C1333      H1339   1.084       .  S
C1333      C1334   1.373       .  D
C1334      C2919   1.520       .  S
C1335      H1340   1.085       .  S
C1335      C1336   1.362       .  D
C1336      C1799   1.487       .  S
C1341      C2519   1.542       .  S
C1341      C1342   1.534       .  S
C1341      C1347   1.544       .  S
C1341      C1345   1.537       .  S
C1342      H1349   1.087       .  S
C1342      C1343   1.358       .  D
C1343      C1344   1.545       .  S
C1343      C1899   1.479       .  S
C1344      C1348   1.549       .  S
C1344      C1346   1.547       .  S
C1344      H1350   1.108       .  S
C1345      H1351   1.086       .  S
C1345      C1346   1.367       .  D
C1346      C2909   1.506       .  S
C1347      H1352   1.081       .  S
C1347      C1348   1.375       .  D
C1348      C2369   1.496       .  S
C1353      C2009   1.542       .  S
C1353      C1354   1.532       .  S
C1353      C1359   1.538       .  S
C1353      C1357   1.541       .  S
C1354      H1361   1.082       .  S
C1354      C1355   1.366       .  D
C1355      C1356   1.551       .  S
C1355      C2699   1.494       .  S
C1356      C1360   1.552       .  S
C1356      C1358   1.543       .  S
C1356      H1362   1.110       .  S
C1357      H1363   1.086       .  S
C1357      C1358   1.367       .  D
C1358      C3006   1.498       .  S
C1359      H1364   1.086       .  S
C1359      C1360   1.366       .  D
C1360      C1609   1.489       .  S
N1365      N1366   1.322       .  A
N1365      C1369   1.349       .  A
N1365     Cu1373   2.078       .  S
N1366      C1367   1.340       .  A
N1366     Cu1372   2.056       .  S
C1367      C1368   1.376       .  A
C1367      H1370   1.081       .  S
C1368      C1369   1.385       .  A
C1368      C1576   1.468       .  S
C1369      H1371   1.082       .  S
Cu1372     N1375   2.052       .  S
Cu1373     N1383   2.080       .  S
Cu1374     N1376   2.093       .  S
Cu1374     N1382   2.094       .  S
N1375      N1376   1.320       .  A
N1375      C1379   1.342       .  A
N1376      C1377   1.350       .  A
C1377      C1378   1.392       .  A
C1377      H1380   1.079       .  S
C1378      C1379   1.381       .  A
C1378      C1566   1.484       .  S
C1379      H1381   1.081       .  S
N1382      N1383   1.323       .  A
N1382      C1386   1.348       .  A
N1383      C1384   1.347       .  A
C1384      C1385   1.387       .  A
C1384      H1387   1.079       .  S
C1385      C1386   1.389       .  A
C1385      C1586   1.489       .  S
C1386      H1388   1.081       .  S
N1389      N1390   1.319       .  A
N1389      C1393   1.349       .  A
N1389     Cu1397   2.084       .  S
N1390      C1391   1.342       .  A
N1390     Cu1396   2.057       .  S
C1391      C1392   1.384       .  A
C1391      H1394   1.081       .  S
C1392      C1393   1.392       .  A
C1392      C1559   1.489       .  S
C1393      H1395   1.081       .  S
Cu1396     N1399   2.052       .  S
Cu1397     N1407   2.086       .  S
Cu1398     N1400   2.090       .  S
Cu1398     N1406   2.092       .  S
N1399      N1400   1.321       .  A
N1399      C1403   1.339       .  A
N1400      C1401   1.352       .  A
C1401      C1402   1.390       .  A
C1401      H1404   1.081       .  S
C1402      C1403   1.378       .  A
C1402      C1546   1.479       .  S
C1403      H1405   1.079       .  S
N1406      N1407   1.323       .  A
N1406      C1410   1.349       .  A
N1407      C1408   1.345       .  A
C1408      C1409   1.389       .  A
C1408      H1411   1.079       .  S
C1409      C1410   1.392       .  A
C1409      C1589   1.496       .  S
C1410      H1412   1.079       .  S
C1413      C2256   1.545       .  S
C1413      C1414   1.541       .  S
C1413      C1419   1.542       .  S
C1413      C1417   1.530       .  S
C1414      H1421   1.076       .  S
C1414      C1415   1.371       .  D
C1415      C1416   1.548       .  S
C1415      C1579   1.504       .  S
C1416      C1420   1.547       .  S
C1416      C1418   1.557       .  S
C1416      H1422   1.107       .  S
C1417      H1423   1.087       .  S
C1417      C1418   1.362       .  D
C1418      C2999   1.502       .  S
C1419      H1424   1.086       .  S
C1419      C1420   1.369       .  D
C1420      C1599   1.496       .  S
C1425      C1569   1.541       .  S
C1425      C1426   1.542       .  S
C1425      C1431   1.540       .  S
C1425      C1429   1.536       .  S
C1426      H1433   1.085       .  S
C1426      C1427   1.366       .  D
C1427      C1428   1.541       .  S
C1427      C2169   1.479       .  S
C1428      C1432   1.545       .  S
C1428      C1430   1.547       .  S
C1428      H1434   1.109       .  S
C1429      H1435   1.086       .  S
C1429      C1430   1.367       .  D
C1430      C2989   1.502       .  S
C1431      H1436   1.084       .  S
C1431      C1432   1.368       .  D
C1432      C1999   1.495       .  S
C1437      C2469   1.533       .  S
C1437      C1438   1.539       .  S
C1437      C1443   1.546       .  S
C1437      C1441   1.538       .  S
C1438      H1445   1.086       .  S
C1438      C1439   1.359       .  D
C1439      C1440   1.532       .  S
C1439      C1946   1.470       .  S
C1440      C1444   1.544       .  S
C1440      C1442   1.537       .  S
C1440      H1446   1.110       .  S
C1441      H1447   1.086       .  S
C1441      C1442   1.362       .  D
C1442      C2959   1.489       .  S
C1443      H1448   1.081       .  S
C1443      C1444   1.372       .  D
C1444      C2316   1.492       .  S
C1449      C2569   1.538       .  S
C1449      C1450   1.542       .  S
C1449      C1455   1.535       .  S
C1449      C1453   1.538       .  S
C1450      H1457   1.083       .  S
C1450      C1451   1.369       .  D
C1451      C1452   1.543       .  S
C1451      C2309   1.481       .  S
C1452      C1456   1.544       .  S
C1452      C1454   1.544       .  S
C1452      H1458   1.107       .  S
C1453      H1459   1.085       .  S
C1453      C1454   1.370       .  D
C1454      C2949   1.508       .  S
C1455      H1460   1.086       .  S
C1455      C1456   1.358       .  D
C1456      C1849   1.478       .  S
C1461      C2659   1.539       .  S
C1461      C1462   1.540       .  S
C1461      C1467   1.536       .  S
C1461      C1465   1.532       .  S
C1462      H1469   1.082       .  S
C1462      C1463   1.369       .  D
C1463      C1464   1.548       .  S
C1463      C2479   1.495       .  S
C1464      C1468   1.549       .  S
C1464      C1466   1.548       .  S
C1464      H1470   1.110       .  S
C1465      H1471   1.087       .  S
C1465      C1466   1.365       .  D
C1466      C2969   1.493       .  S
C1467      H1472   1.085       .  S
C1467      C1468   1.367       .  D
C1468      C2579   1.491       .  S
C1473      C2179   1.534       .  S
C1473      C1474   1.543       .  S
C1473      C1479   1.537       .  S
C1473      C1477   1.531       .  S
C1474      H1481   1.084       .  S
C1474      C1475   1.372       .  D
C1475      C1476   1.555       .  S
C1475      C2269   1.495       .  S
C1476      C1480   1.545       .  S
C1476      C1478   1.551       .  S
C1476      H1482   1.110       .  S
C1477      H1483   1.087       .  S
C1477      C1478   1.362       .  D
C1478      C3019   1.499       .  S
C1479      H1484   1.086       .  S
C1479      C1480   1.360       .  D
C1480      C2709   1.487       .  S
C1485      C2529   1.546       .  S
C1485      C1486   1.537       .  S
C1485      C1491   1.549       .  S
C1485      C1489   1.534       .  S
C1486      H1493   1.086       .  S
C1486      C1487   1.367       .  D
C1487      C1488   1.548       .  S
C1487      C2429   1.488       .  S
C1488      C1492   1.538       .  S
C1488      C1490   1.554       .  S
C1488      H1494   1.102       .  S
C1489      H1495   1.082       .  S
C1489      C1490   1.373       .  D
C1490      C2929   1.524       .  S
C1491      H1496   1.081       .  S
C1491      C1492   1.365       .  D
C1492      C2609   1.489       .  S
C1497      C2616   1.539       .  S
C1497      C1498   1.545       .  S
C1497      C1503   1.539       .  S
C1497      C1501   1.539       .  S
C1498      H1505   1.084       .  S
C1498      C1499   1.368       .  D
C1499      C1500   1.544       .  S
C1499      C2289   1.494       .  S
C1500      C1504   1.543       .  S
C1500      C1502   1.541       .  S
C1500      H1506   1.110       .  S
C1501      H1507   1.086       .  S
C1501      C1502   1.366       .  D
C1502      C3049   1.494       .  S
C1503      H1508   1.085       .  S
C1503      C1504   1.363       .  D
C1504      C1549   1.482       .  S
C1509      C2719   1.543       .  S
C1509      C1510   1.536       .  S
C1509      C1515   1.535       .  S
C1509      C1513   1.536       .  S
C1510      H1517   1.084       .  S
C1510      C1511   1.365       .  D
C1511      C1512   1.548       .  S
C1511      C2336   1.494       .  S
C1512      C1516   1.548       .  S
C1512      C1514   1.552       .  S
C1512      H1518   1.107       .  S
C1513      H1519   1.085       .  S
C1513      C1514   1.374       .  D
C1514      C3039   1.516       .  S
C1515      H1520   1.085       .  S
C1515      C1516   1.364       .  D
C1516      C2299   1.477       .  S
C1521      C2349   1.535       .  S
C1521      C1522   1.533       .  S
C1521      C1527   1.538       .  S
C1521      C1525   1.535       .  S
C1522      H1529   1.085       .  S
C1522      C1523   1.365       .  D
C1523      C1524   1.553       .  S
C1523      C2669   1.494       .  S
C1524      C1528   1.550       .  S
C1524      C1526   1.546       .  S
C1524      H1530   1.110       .  S
C1525      H1531   1.087       .  S
C1525      C1526   1.364       .  D
C1526      C3029   1.494       .  S
C1527      H1532   1.082       .  S
C1527      C1528   1.368       .  D
C1528      C1556   1.492       .  S
C1533      C2729   1.541       .  S
C1533      C1534   1.536       .  S
C1533      C1539   1.535       .  S
C1533      C1537   1.536       .  S
C1534      H1541   1.084       .  S
C1534      C1535   1.362       .  D
C1535      C1536   1.544       .  S
C1535      C2629   1.479       .  S
C1536      C1540   1.553       .  S
C1536      C1538   1.546       .  S
C1536      H1542   1.109       .  S
C1537      H1543   1.086       .  S
C1537      C1538   1.369       .  D
C1538      C3059   1.502       .  S
C1539      H1544   1.084       .  S
C1539      C1540   1.371       .  D
C1540      C2679   1.498       .  S
C1545      C1546   1.410       .  A
C1545      C1550   1.398       .  A
C1545      F1552   1.358       .  S
C1546      C1547   1.403       .  A
C1547      C1548   1.402       .  A
C1547      F1554   1.358       .  S
C1548      C1549   1.411       .  A
C1548      F1553   1.358       .  S
C1549      C1550   1.401       .  A
C1550      F1551   1.358       .  S
C1555      C1556   1.406       .  A
C1555      C1560   1.404       .  A
C1555      F1562   1.357       .  S
C1556      C1557   1.410       .  A
C1557      C1558   1.397       .  A
C1557      F1564   1.358       .  S
C1558      C1559   1.408       .  A
C1558      F1563   1.358       .  S
C1559      C1560   1.410       .  A
C1560      F1561   1.357       .  S
C1565      C1566   1.403       .  A
C1565      C1570   1.401       .  A
C1565      F1572   1.358       .  S
C1566      C1567   1.404       .  A
C1567      C1568   1.401       .  A
C1567      F1574   1.358       .  S
C1568      C1569   1.416       .  A
C1568      F1573   1.357       .  S
C1569      C1570   1.419       .  A
C1570      F1571   1.356       .  S
C1575      C1576   1.396       .  A
C1575      C1580   1.398       .  A
C1575      F1582   1.358       .  S
C1576      C1577   1.402       .  A
C1577      C1578   1.401       .  A
C1577      F1584   1.358       .  S
C1578      C1579   1.410       .  A
C1578      F1583   1.350       .  S
C1579      C1580   1.417       .  A
C1580      F1581   1.357       .  S
C1585      C1586   1.409       .  A
C1585      C1590   1.403   1_655  A
C1585      F1592   1.357       .  S
C1586      C1587   1.406       .  A
C1587      C1588   1.401   1_655  A
C1587      F1594   1.358       .  S
C1588      C1589   1.412       .  A
C1588      F1593   1.356       .  S
C1589      C1590   1.410       .  A
C1590      F1591   1.357       .  S
C1595      C1596   1.405       .  A
C1595      C1600   1.401       .  A
C1595      F1602   1.357       .  S
C1596      C1597   1.407       .  A
C1597      C1598   1.402       .  A
C1597      F1604   1.358       .  S
C1598      C1599   1.410       .  A
C1598      F1603   1.357       .  S
C1599      C1600   1.411       .  A
C1600      F1601   1.357       .  S
C1605      C1606   1.409       .  A
C1605      C1610   1.399       .  A
C1605      F1612   1.358       .  S
C1606      C1607   1.406       .  A
C1607      C1608   1.407       .  A
C1607      F1614   1.358       .  S
C1608      C1609   1.410       .  A
C1608      F1613   1.358       .  S
C1609      C1610   1.403       .  A
C1610      F1611   1.356       .  S
C1615      C1616   1.408       .  A
C1615      C1620   1.404       .  A
C1615      F1622   1.357       .  S
C1616      C1617   1.405       .  A
C1617      C1618   1.395       .  A
C1617      F1624   1.358       .  S
C1618      C1619   1.414       .  A
C1618      F1623   1.358       .  S
C1619      C1620   1.418       .  A
C1620      F1621   1.354       .  S
C1625      C1626   1.415       .  A
C1625      C1630   1.399       .  A
C1625      F1632   1.357       .  S
C1626      C1627   1.409       .  A
C1627      C1628   1.407       .  A
C1627      F1634   1.357       .  S
C1628      C1629   1.406       .  A
C1628      F1633   1.357       .  S
C1629      C1630   1.399       .  A
C1630      F1631   1.358       .  S
C1635      C1636   1.408       .  A
C1635      C1640   1.408   1_565  A
C1635      F1642   1.357       .  S
C1636      C1637   1.410       .  A
C1637      C1638   1.404   1_565  A
C1637      F1644   1.358       .  S
C1638      C1639   1.413       .  A
C1638      F1643   1.356       .  S
C1639      C1640   1.415       .  A
C1640      F1641   1.356       .  S
C1645      C1646   1.419       .  A
C1645      C1650   1.404       .  A
C1645      F1652   1.355       .  S
C1646      C1647   1.415       .  A
C1647      C1648   1.394       .  A
C1647      F1654   1.358       .  S
C1648      C1649   1.404       .  A
C1648      F1653   1.358       .  S
C1649      C1650   1.406       .  A
C1650      F1651   1.357       .  S
C1655      C1656   1.404       .  A
C1655      C1660   1.398       .  A
C1655      F1662   1.358       .  S
C1656      C1657   1.407       .  A
C1657      C1658   1.407       .  A
C1657      F1664   1.357       .  S
C1658      C1659   1.412       .  A
C1658      F1663   1.357       .  S
C1659      C1660   1.413       .  A
C1660      F1661   1.357       .  S
C1665      C1666   1.403       .  A
C1665      C1670   1.400       .  A
C1665      F1672   1.357       .  S
C1666      C1667   1.409       .  A
C1667      C1668   1.399       .  A
C1667      F1674   1.358       .  S
C1668      C1669   1.404       .  A
C1668      F1673   1.357       .  S
C1669      C1670   1.408       .  A
C1670      F1671   1.358       .  S
C1675      C1676   1.401       .  A
C1675      C1680   1.395       .  A
C1675      F1682   1.359       .  S
C1676      C1677   1.403       .  A
C1677      C1678   1.401       .  A
C1677      F1684   1.358       .  S
C1678      C1679   1.418       .  A
C1678      F1683   1.357       .  S
C1679      C1680   1.418       .  A
C1680      F1681   1.357       .  S
C1685      C1686   1.407       .  A
C1685      C1690   1.401   1_655  A
C1685      F1692   1.358       .  S
C1686      C1687   1.409       .  A
C1687      C1688   1.404   1_655  A
C1687      F1694   1.357       .  S
C1688      C1689   1.409       .  A
C1688      F1693   1.357       .  S
C1689      C1690   1.409       .  A
C1690      F1691   1.357       .  S
C1695      C1696   1.411       .  A
C1695      C1700   1.408       .  A
C1695      F1702   1.357       .  S
C1696      C1697   1.409       .  A
C1697      C1698   1.394       .  A
C1697      F1704   1.358       .  S
C1698      C1699   1.405       .  A
C1698      F1703   1.358       .  S
C1699      C1700   1.407       .  A
C1700      F1701   1.357       .  S
C1705      C1706   1.403       .  A
C1705      C1710   1.400       .  A
C1705      F1712   1.358       .  S
C1706      C1707   1.404       .  A
C1707      C1708   1.400       .  A
C1707      F1714   1.358       .  S
C1708      C1709   1.417       .  A
C1708      F1713   1.357       .  S
C1709      C1710   1.418       .  A
C1710      F1711   1.356       .  S
C1715      C1716   1.403       .  A
C1715      C1720   1.397       .  A
C1715      F1722   1.359       .  S
C1716      C1717   1.405       .  A
C1717      C1718   1.404       .  A
C1717      F1724   1.357       .  S
C1718      C1719   1.417       .  A
C1718      F1723   1.357       .  S
C1719      C1720   1.419       .  A
C1720      F1721   1.355       .  S
C1725      C1726   1.409       .  A
C1725      C1730   1.404       .  A
C1725      F1732   1.357       .  S
C1726      C1727   1.408       .  A
C1727      C1728   1.395       .  A
C1727      F1734   1.358       .  S
C1728      C1729   1.406       .  A
C1728      F1733   1.358       .  S
C1729      C1730   1.407       .  A
C1730      F1731   1.358       .  S
C1735      C1736   1.409   1_545  A
C1735      C1740   1.406       .  A
C1735      F1742   1.357   1_545  S
C1736      C1737   1.408   1_565  A
C1737      C1738   1.400       .  A
C1737      F1744   1.357   1_545  S
C1738      C1739   1.410       .  A
C1738      F1743   1.357       .  S
C1739      C1740   1.410       .  A
C1740      F1741   1.357       .  S
C1745      C1746   1.410       .  A
C1745      C1750   1.401       .  A
C1745      F1752   1.358       .  S
C1746      C1747   1.406       .  A
C1747      C1748   1.396       .  A
C1747      F1754   1.357       .  S
C1748      C1749   1.405       .  A
C1748      F1753   1.358       .  S
C1749      C1750   1.406       .  A
C1750      F1751   1.358       .  S
C1755      C1756   1.405       .  A
C1755      C1760   1.400       .  A
C1755      F1762   1.358       .  S
C1756      C1757   1.404       .  A
C1757      C1758   1.400       .  A
C1757      F1764   1.358       .  S
C1758      C1759   1.407       .  A
C1758      F1763   1.357       .  S
C1759      C1760   1.410       .  A
C1760      F1761   1.358       .  S
C1765      C1766   1.409       .  A
C1765      C1770   1.397       .  A
C1765      F1772   1.358       .  S
C1766      C1767   1.404       .  A
C1767      C1768   1.402       .  A
C1767      F1774   1.357       .  S
C1768      C1769   1.409       .  A
C1768      F1773   1.358       .  S
C1769      C1770   1.403       .  A
C1770      F1771   1.358       .  S
C1775      C1776   1.404       .  A
C1775      C1780   1.394       .  A
C1775      F1782   1.358       .  S
C1776      C1777   1.407       .  A
C1777      C1778   1.404       .  A
C1777      F1784   1.357       .  S
C1778      C1779   1.412       .  A
C1778      F1783   1.358       .  S
C1779      C1780   1.408       .  A
C1780      F1781   1.355       .  S
C1785      C1786   1.408       .  A
C1785      C1790   1.401   1_556  A
C1785      F1792   1.357       .  S
C1786      C1787   1.408       .  A
C1787      C1788   1.401   1_556  A
C1787      F1794   1.357       .  S
C1788      C1789   1.409       .  A
C1788      F1793   1.358       .  S
C1789      C1790   1.409       .  A
C1790      F1791   1.357       .  S
C1795      C1796   1.411       .  A
C1795      C1800   1.400       .  A
C1795      F1802   1.358       .  S
C1796      C1797   1.406       .  A
C1797      C1798   1.405       .  A
C1797      F1804   1.358       .  S
C1798      C1799   1.409       .  A
C1798      F1803   1.358       .  S
C1799      C1800   1.401       .  A
C1800      F1801   1.355       .  S
C1805      C1806   1.399       .  A
C1805      C1810   1.396       .  A
C1805      F1812   1.357       .  S
C1806      C1807   1.405       .  A
C1807      C1808   1.405       .  A
C1807      F1814   1.358       .  S
C1808      C1809   1.408       .  A
C1808      F1813   1.357       .  S
C1809      C1810   1.413       .  A
C1810      F1811   1.358       .  S
C1815      C1816   1.413       .  A
C1815      C1820   1.399       .  A
C1815      F1822   1.357       .  S
C1816      C1817   1.408       .  A
C1817      C1818   1.404       .  A
C1817      F1824   1.357       .  S
C1818      C1819   1.412       .  A
C1818      F1823   1.357       .  S
C1819      C1820   1.406       .  A
C1820      F1821   1.357       .  S
C1825      C1826   1.409       .  A
C1825      C1830   1.400       .  A
C1825      F1832   1.358       .  S
C1826      C1827   1.406       .  A
C1827      C1828   1.406       .  A
C1827      F1834   1.357       .  S
C1828      C1829   1.408       .  A
C1828      F1833   1.358       .  S
C1829      C1830   1.402       .  A
C1830      F1831   1.356       .  S
C1835      C1836   1.408       .  A
C1835      C1840   1.406   1_655  A
C1835      F1842   1.357       .  S
C1836      C1837   1.409       .  A
C1837      C1838   1.408   1_655  A
C1837      F1844   1.357       .  S
C1838      C1839   1.412       .  A
C1838      F1843   1.357       .  S
C1839      C1840   1.413       .  A
C1840      F1841   1.357       .  S
C1845      C1846   1.406       .  A
C1845      C1850   1.403       .  A
C1845      F1852   1.357       .  S
C1846      C1847   1.410       .  A
C1847      C1848   1.395       .  A
C1847      F1854   1.358       .  S
C1848      C1849   1.401       .  A
C1848      F1853   1.355       .  S
C1849      C1850   1.407       .  A
C1850      F1851   1.358       .  S
C1855      C1856   1.409       .  A
C1855      C1860   1.399       .  A
C1855      F1862   1.358       .  S
C1856      C1857   1.404       .  A
C1857      C1858   1.402       .  A
C1857      F1864   1.358       .  S
C1858      C1859   1.410       .  A
C1858      F1863   1.358       .  S
C1859      C1860   1.404       .  A
C1860      F1861   1.356       .  S
C1865      C1866   1.407       .  A
C1865      C1870   1.392       .  A
C1865      F1872   1.357       .  S
C1866      C1867   1.410       .  A
C1867      C1868   1.404       .  A
C1867      F1874   1.356       .  S
C1868      C1869   1.417       .  A
C1868      F1873   1.352       .  S
C1869      C1870   1.414       .  A
C1870      F1871   1.359       .  S
C1875      C1876   1.410       .  A
C1875      C1880   1.406       .  A
C1875      F1882   1.356       .  S
C1876      C1877   1.412       .  A
C1877      C1878   1.394       .  A
C1877      F1884   1.357       .  S
C1878      C1879   1.402       .  A
C1878      F1883   1.358       .  S
C1879      C1880   1.404       .  A
C1880      F1881   1.357       .  S
C1885      C1886   1.406       .  A
C1885      C1890   1.399   1_556  A
C1885      F1892   1.358       .  S
C1886      C1887   1.407       .  A
C1887      C1888   1.404   1_556  A
C1887      F1894   1.358       .  S
C1888      C1889   1.410       .  A
C1888      F1893   1.357       .  S
C1889      C1890   1.409       .  A
C1890      F1891   1.357       .  S
C1895      C1896   1.408       .  A
C1895      C1900   1.406       .  A
C1895      F1902   1.358       .  S
C1896      C1897   1.411       .  A
C1897      C1898   1.395       .  A
C1897      F1904   1.357       .  S
C1898      C1899   1.398       .  A
C1898      F1903   1.356       .  S
C1899      C1900   1.408       .  A
C1900      F1901   1.358       .  S
C1905      C1906   1.402       .  A
C1905      C1910   1.399       .  A
C1905      F1912   1.358       .  S
C1906      C1907   1.403       .  A
C1907      C1908   1.401       .  A
C1907      F1914   1.358       .  S
C1908      C1909   1.417       .  A
C1908      F1913   1.356       .  S
C1909      C1910   1.417       .  A
C1910      F1911   1.357       .  S
C1915      C1916   1.404       .  A
C1915      C1920   1.402       .  A
C1915      F1922   1.358       .  S
C1916      C1917   1.410       .  A
C1917      C1918   1.396       .  A
C1917      F1924   1.358       .  S
C1918      C1919   1.401       .  A
C1918      F1923   1.358       .  S
C1919      C1920   1.410       .  A
C1920      F1921   1.358       .  S
C1925      C1926   1.403       .  A
C1925      C1930   1.399       .  A
C1925      F1932   1.358       .  S
C1926      C1927   1.409       .  A
C1927      C1928   1.399       .  A
C1927      F1934   1.358       .  S
C1928      C1929   1.402       .  A
C1928      F1933   1.358       .  S
C1929      C1930   1.407       .  A
C1930      F1931   1.358       .  S
C1935      C1936   1.408       .  A
C1935      C1940   1.402   1_565  A
C1935      F1942   1.357       .  S
C1936      C1937   1.409       .  A
C1937      C1938   1.402   1_565  A
C1937      F1944   1.357       .  S
C1938      C1939   1.410       .  A
C1938      F1943   1.357       .  S
C1939      C1940   1.409       .  A
C1940      F1941   1.357       .  S
C1945      C1946   1.401       .  A
C1945      C1950   1.397       .  A
C1945      F1952   1.358       .  S
C1946      C1947   1.404       .  A
C1947      C1948   1.396       .  A
C1947      F1954   1.358       .  S
C1948      C1949   1.402       .  A
C1948      F1953   1.358       .  S
C1949      C1950   1.409       .  A
C1950      F1951   1.358       .  S
C1955      C1956   1.410       .  A
C1955      C1960   1.396       .  A
C1955      F1962   1.353       .  S
C1956      C1957   1.415       .  A
C1957      C1958   1.406       .  A
C1957      F1964   1.357       .  S
C1958      C1959   1.405       .  A
C1958      F1963   1.357       .  S
C1959      C1960   1.408       .  A
C1960      F1961   1.358       .  S
C1965      C1966   1.406       .  A
C1965      C1970   1.399       .  A
C1965      F1972   1.358       .  S
C1966      C1967   1.405       .  A
C1967      C1968   1.403       .  A
C1967      F1974   1.358       .  S
C1968      C1969   1.413       .  A
C1968      F1973   1.358       .  S
C1969      C1970   1.408       .  A
C1970      F1971   1.357       .  S
C1975      C1976   1.402       .  A
C1975      C1980   1.399       .  A
C1975      F1982   1.358       .  S
C1976      C1977   1.407       .  A
C1977      C1978   1.395       .  A
C1977      F1984   1.358       .  S
C1978      C1979   1.401       .  A
C1978      F1983   1.355       .  S
C1979      C1980   1.408       .  A
C1980      F1981   1.358       .  S
C1985      C1986   1.410       .  A
C1985      C1990   1.401   1_655  A
C1985      F1992   1.357       .  S
C1986      C1987   1.409       .  A
C1987      C1988   1.401   1_655  A
C1987      F1994   1.357       .  S
C1988      C1989   1.406       .  A
C1988      F1993   1.358       .  S
C1989      C1990   1.406       .  A
C1990      F1991   1.358       .  S
C1995      C1996   1.410       .  A
C1995      C2000   1.409       .  A
C1995      F2002   1.357       .  S
C1996      C1997   1.410       .  A
C1997      C1998   1.395       .  A
C1997      F2004   1.358       .  S
C1998      C1999   1.406       .  A
C1998      F2003   1.358       .  S
C1999      C2000   1.410       .  A
C2000      F2001   1.357       .  S
C2005      C2006   1.405       .  A
C2005      C2010   1.404       .  A
C2005      F2012   1.358       .  S
C2006      C2007   1.406       .  A
C2007      C2008   1.396       .  A
C2007      F2014   1.358       .  S
C2008      C2009   1.413       .  A
C2008      F2013   1.357       .  S
C2009      C2010   1.422       .  A
C2010      F2011   1.355       .  S
C2015      C2016   1.404       .  A
C2015      C2020   1.407       .  A
C2015      F2022   1.358       .  S
C2016      C2017   1.409       .  A
C2017      C2018   1.397       .  A
C2017      F2024   1.358       .  S
C2018      C2019   1.404       .  A
C2018      F2023   1.357       .  S
C2019      C2020   1.415       .  A
C2020      F2021   1.357       .  S
C2025      C2026   1.413       .  A
C2025      C2030   1.409       .  A
C2025      F2032   1.357       .  S
C2026      C2027   1.411       .  A
C2027      C2028   1.396       .  A
C2027      F2034   1.357       .  S
C2028      C2029   1.404       .  A
C2028      F2033   1.359       .  S
C2029      C2030   1.405       .  A
C2030      F2031   1.357       .  S
C2035      C2036   1.411       .  A
C2035      C2040   1.410   1_556  A
C2035      F2042   1.357       .  S
C2036      C2037   1.408       .  A
C2037      C2038   1.402   1_556  A
C2037      F2044   1.357       .  S
C2038      C2039   1.409       .  A
C2038      F2043   1.357       .  S
C2039      C2040   1.411       .  A
C2040      F2041   1.357       .  S
C2045      C2046   1.406       .  A
C2045      C2050   1.400       .  A
C2045      F2052   1.358       .  S
C2046      C2047   1.405       .  A
C2047      C2048   1.398       .  A
C2047      F2054   1.358       .  S
C2048      C2049   1.409       .  A
C2048      F2053   1.358       .  S
C2049      C2050   1.406       .  A
C2050      F2051   1.357       .  S
C2055      C2056   1.406       .  A
C2055      C2060   1.404       .  A
C2055      F2062   1.357       .  S
C2056      C2057   1.411       .  A
C2057      C2058   1.400       .  A
C2057      F2064   1.358       .  S
C2058      C2059   1.405       .  A
C2058      F2063   1.355       .  S
C2059      C2060   1.410       .  A
C2060      F2061   1.357       .  S
C2065      C2066   1.403       .  A
C2065      C2070   1.402       .  A
C2065      F2072   1.358       .  S
C2066      C2067   1.402       .  A
C2067      C2068   1.401       .  A
C2067      F2074   1.358       .  S
C2068      C2069   1.418       .  A
C2068      F2073   1.358       .  S
C2069      C2070   1.419       .  A
C2070      F2071   1.354       .  S
C2075      C2076   1.403       .  A
C2075      C2080   1.402       .  A
C2075      F2082   1.358       .  S
C2076      C2077   1.410       .  A
C2077      C2078   1.400       .  A
C2077      F2084   1.358       .  S
C2078      C2079   1.405       .  A
C2078      F2083   1.358       .  S
C2079      C2080   1.413       .  A
C2080      F2081   1.358       .  S
C2085      C2086   1.409       .  A
C2085      C2090   1.401       .  A
C2085      F2092   1.357       .  S
C2086      C2087   1.410       .  A
C2087      C2088   1.409       .  A
C2087      F2094   1.357       .  S
C2088      C2089   1.410       .  A
C2088      F2093   1.358       .  S
C2089      C2090   1.407       .  A
C2090      F2091   1.358       .  S
C2095      C2096   1.406       .  A
C2095      C2100   1.402       .  A
C2095      F2102   1.357       .  S
C2096      C2097   1.403       .  A
C2097      C2098   1.394       .  A
C2097      F2104   1.358       .  S
C2098      C2099   1.415       .  A
C2098      F2103   1.358       .  S
C2099      C2100   1.418       .  A
C2100      F2101   1.354       .  S
C2105      C2106   1.403       .  A
C2105      C2110   1.406       .  A
C2105      F2112   1.358       .  S
C2106      C2107   1.402       .  A
C2107      C2108   1.399       .  A
C2107      F2114   1.358       .  S
C2108      C2109   1.419       .  A
C2108      F2113   1.353       .  S
C2109      C2110   1.420       .  A
C2110      F2111   1.358       .  S
C2115      C2116   1.405       .  A
C2115      C2120   1.403       .  A
C2115      F2122   1.357       .  S
C2116      C2117   1.412       .  A
C2117      C2118   1.401       .  A
C2117      F2124   1.358       .  S
C2118      C2119   1.402       .  A
C2118      F2123   1.358       .  S
C2119      C2120   1.409       .  A
C2120      F2121   1.358       .  S
C2125      C2126   1.420       .  A
C2125      C2130   1.402       .  A
C2125      F2132   1.352       .  S
C2126      C2127   1.413       .  A
C2127      C2128   1.394       .  A
C2127      F2134   1.359       .  S
C2128      C2129   1.407       .  A
C2128      F2133   1.357       .  S
C2129      C2130   1.407       .  A
C2130      F2131   1.357       .  S
C2135      C2136   1.408       .  A
C2135      C2140   1.404       .  A
C2135      F2142   1.357       .  S
C2136      C2137   1.410       .  A
C2137      C2138   1.405       .  A
C2137      F2144   1.357       .  S
C2138      C2139   1.409       .  A
C2138      F2143   1.357       .  S
C2139      C2140   1.413       .  A
C2140      F2141   1.357       .  S
C2145      C2146   1.405       .  A
C2145      C2150   1.393       .  A
C2145      F2152   1.358       .  S
C2146      C2147   1.407       .  A
C2147      C2148   1.401       .  A
C2147      F2154   1.357       .  S
C2148      C2149   1.418       .  A
C2148      F2153   1.353       .  S
C2149      C2150   1.415       .  A
C2150      F2151   1.359       .  S
C2155      C2156   1.409       .  A
C2155      C2160   1.402       .  A
C2155      F2162   1.358       .  S
C2156      C2157   1.402       .  A
C2157      C2158   1.402       .  A
C2157      F2164   1.358       .  S
C2158      C2159   1.411       .  A
C2158      F2163   1.358       .  S
C2159      C2160   1.405       .  A
C2160      F2161   1.358       .  S
C2165      C2166   1.406       .  A
C2165      C2170   1.402       .  A
C2165      F2172   1.358       .  S
C2166      C2167   1.411       .  A
C2167      C2168   1.396       .  A
C2167      F2174   1.357       .  S
C2168      C2169   1.400       .  A
C2168      F2173   1.358       .  S
C2169      C2170   1.408       .  A
C2170      F2171   1.358       .  S
C2175      C2176   1.407       .  A
C2175      C2180   1.405       .  A
C2175      F2182   1.357       .  S
C2176      C2177   1.400       .  A
C2177      C2178   1.391       .  A
C2177      F2184   1.359       .  S
C2178      C2179   1.418       .  A
C2178      F2183   1.358       .  S
C2179      C2180   1.416       .  A
C2180      F2181   1.356       .  S
C2185      C2186   1.407       .  A
C2185      C2190   1.401       .  A
C2185      F2192   1.358       .  S
C2186      C2187   1.405       .  A
C2187      C2188   1.400       .  A
C2187      F2194   1.358       .  S
C2188      C2189   1.411       .  A
C2188      F2193   1.357       .  S
C2189      C2190   1.407       .  A
C2190      F2191   1.357       .  S
C2195      C2196   1.403       .  A
C2195      C2200   1.403       .  A
C2195      F2202   1.357       .  S
C2196      C2197   1.408       .  A
C2197      C2198   1.399       .  A
C2197      F2204   1.358       .  S
C2198      C2199   1.402       .  A
C2198      F2203   1.357       .  S
C2199      C2200   1.407       .  A
C2200      F2201   1.358       .  S
C2205      C2206   1.408       .  A
C2205      C2210   1.399       .  A
C2205      F2212   1.358       .  S
C2206      C2207   1.403       .  A
C2207      C2208   1.403       .  A
C2207      F2214   1.357       .  S
C2208      C2209   1.409       .  A
C2208      F2213   1.358       .  S
C2209      C2210   1.403       .  A
C2210      F2211   1.357       .  S
C2215      C2216   1.407       .  A
C2215      C2220   1.405       .  A
C2215      F2222   1.357       .  S
C2216      C2217   1.413       .  A
C2217      C2218   1.396       .  A
C2217      F2224   1.355       .  S
C2218      C2219   1.407       .  A
C2218      F2223   1.350       .  S
C2219      C2220   1.417       .  A
C2220      F2221   1.357       .  S
C2225      C2226   1.408       .  A
C2225      C2230   1.404       .  A
C2225      F2232   1.357       .  S
C2226      C2227   1.408       .  A
C2227      C2228   1.407       .  A
C2227      F2234   1.358       .  S
C2228      C2229   1.412       .  A
C2228      F2233   1.357       .  S
C2229      C2230   1.411       .  A
C2230      F2231   1.357       .  S
C2235      C2236   1.405       .  A
C2235      C2240   1.400       .  A
C2235      F2242   1.358       .  S
C2236      C2237   1.402       .  A
C2237      C2238   1.403       .  A
C2237      F2244   1.358       .  S
C2238      C2239   1.422       .  A
C2238      F2243   1.358       .  S
C2239      C2240   1.415       .  A
C2240      F2241   1.355       .  S
C2245      C2246   1.407       .  A
C2245      C2250   1.404       .  A
C2245      F2252   1.358       .  S
C2246      C2247   1.404       .  A
C2247      C2248   1.400       .  A
C2247      F2254   1.358       .  S
C2248      C2249   1.412       .  A
C2248      F2253   1.358       .  S
C2249      C2250   1.408       .  A
C2250      F2251   1.357       .  S
C2255      C2256   1.415       .  A
C2255      C2260   1.398       .  A
C2255      F2262   1.358       .  S
C2256      C2257   1.422       .  A
C2257      C2258   1.403       .  A
C2257      F2264   1.353       .  S
C2258      C2259   1.404       .  A
C2258      F2263   1.358       .  S
C2259      C2260   1.404       .  A
C2260      F2261   1.358       .  S
C2265      C2266   1.406       .  A
C2265      C2270   1.399       .  A
C2265      F2272   1.358       .  S
C2266      C2267   1.408       .  A
C2267      C2268   1.409       .  A
C2267      F2274   1.357       .  S
C2268      C2269   1.411       .  A
C2268      F2273   1.358       .  S
C2269      C2270   1.406       .  A
C2270      F2271   1.357       .  S
C2275      C2276   1.411       .  A
C2275      C2280   1.409       .  A
C2275      F2282   1.357       .  S
C2276      C2277   1.412       .  A
C2277      C2278   1.405       .  A
C2277      F2284   1.357       .  S
C2278      C2279   1.409       .  A
C2278      F2283   1.357       .  S
C2279      C2280   1.412       .  A
C2280      F2281   1.357       .  S
C2285      C2286   1.407       .  A
C2285      C2290   1.402       .  A
C2285      F2292   1.357       .  S
C2286      C2287   1.407       .  A
C2287      C2288   1.398       .  A
C2287      F2294   1.358       .  S
C2288      C2289   1.408       .  A
C2288      F2293   1.357       .  S
C2289      C2290   1.411       .  A
C2290      F2291   1.358       .  S
C2295      C2296   1.408       .  A
C2295      C2300   1.398       .  A
C2295      F2302   1.358       .  S
C2296      C2297   1.404       .  A
C2297      C2298   1.402       .  A
C2297      F2304   1.357       .  S
C2298      C2299   1.405       .  A
C2298      F2303   1.357       .  S
C2299      C2300   1.403       .  A
C2300      F2301   1.357       .  S
C2305      C2306   1.411       .  A
C2305      C2310   1.399       .  A
C2305      F2312   1.358       .  S
C2306      C2307   1.405       .  A
C2307      C2308   1.401       .  A
C2307      F2314   1.357       .  S
C2308      C2309   1.407       .  A
C2308      F2313   1.358       .  S
C2309      C2310   1.403       .  A
C2310      F2311   1.358       .  S
C2315      C2316   1.410       .  A
C2315      C2320   1.402       .  A
C2315      F2322   1.358       .  S
C2316      C2317   1.409       .  A
C2317      C2318   1.395       .  A
C2317      F2324   1.356       .  S
C2318      C2319   1.405       .  A
C2318      F2323   1.358       .  S
C2319      C2320   1.408       .  A
C2320      F2321   1.357       .  S
C2325      C2326   1.407       .  A
C2325      C2330   1.403   1_565  A
C2325      F2332   1.358       .  S
C2326      C2327   1.408       .  A
C2327      C2328   1.402   1_565  A
C2327      F2334   1.358       .  S
C2328      C2329   1.407       .  A
C2328      F2333   1.357       .  S
C2329      C2330   1.410       .  A
C2330      F2331   1.357       .  S
C2335      C2336   1.408       .  A
C2335      C2340   1.411       .  A
C2335      F2342   1.357       .  S
C2336      C2337   1.407       .  A
C2337      C2338   1.396       .  A
C2337      F2344   1.358       .  S
C2338      C2339   1.409       .  A
C2338      F2343   1.358       .  S
C2339      C2340   1.411       .  A
C2340      F2341   1.357       .  S
C2345      C2346   1.402       .  A
C2345      C2350   1.394       .  A
C2345      F2352   1.358       .  S
C2346      C2347   1.405       .  A
C2347      C2348   1.401       .  A
C2347      F2354   1.358       .  S
C2348      C2349   1.417       .  A
C2348      F2353   1.355       .  S
C2349      C2350   1.415       .  A
C2350      F2351   1.358       .  S
C2355      C2356   1.409       .  A
C2355      C2360   1.398       .  A
C2355      F2362   1.358       .  S
C2356      C2357   1.405       .  A
C2357      C2358   1.406       .  A
C2357      F2364   1.357       .  S
C2358      C2359   1.410       .  A
C2358      F2363   1.358       .  S
C2359      C2360   1.403       .  A
C2360      F2361   1.358       .  S
C2365      C2366   1.405       .  A
C2365      C2370   1.400       .  A
C2365      F2372   1.358       .  S
C2366      C2367   1.405       .  A
C2367      C2368   1.401       .  A
C2367      F2374   1.358       .  S
C2368      C2369   1.411       .  A
C2368      F2373   1.357       .  S
C2369      C2370   1.412       .  A
C2370      F2371   1.357       .  S
C2375      C2376   1.406       .  A
C2375      C2380   1.402   1_556  A
C2375      F2382   1.358       .  S
C2376      C2377   1.409       .  A
C2377      C2378   1.406   1_556  A
C2377      F2384   1.358       .  S
C2378      C2379   1.410       .  A
C2378      F2383   1.357       .  S
C2379      C2380   1.412       .  A
C2380      F2381   1.357       .  S
C2385      C2386   1.403       .  A
C2385      C2390   1.402       .  A
C2385      F2392   1.357       .  S
C2386      C2387   1.409       .  A
C2387      C2388   1.404       .  A
C2387      F2394   1.358       .  S
C2388      C2389   1.405       .  A
C2388      F2393   1.357       .  S
C2389      C2390   1.411       .  A
C2390      F2391   1.358       .  S
C2395      C2396   1.406       .  A
C2395      C2400   1.395       .  A
C2395      F2402   1.358       .  S
C2396      C2397   1.410       .  A
C2397      C2398   1.406       .  A
C2397      F2404   1.357       .  S
C2398      C2399   1.407       .  A
C2398      F2403   1.356       .  S
C2399      C2400   1.409       .  A
C2400      F2401   1.358       .  S
C2405      C2406   1.409       .  A
C2405      C2410   1.409       .  A
C2405      F2412   1.357       .  S
C2406      C2407   1.404       .  A
C2407      C2408   1.394       .  A
C2407      F2414   1.359       .  S
C2408      C2409   1.412       .  A
C2408      F2413   1.358       .  S
C2409      C2410   1.410       .  A
C2410      F2411   1.357       .  S
C2415      C2416   1.404       .  A
C2415      C2420   1.403       .  A
C2415      F2422   1.358       .  S
C2416      C2417   1.403       .  A
C2417      C2418   1.399       .  A
C2417      F2424   1.358       .  S
C2418      C2419   1.418       .  A
C2418      F2423   1.356       .  S
C2419      C2420   1.419       .  A
C2420      F2421   1.356       .  S
C2425      C2426   1.405       .  A
C2425      C2430   1.404       .  A
C2425      F2432   1.358       .  S
C2426      C2427   1.411       .  A
C2427      C2428   1.400       .  A
C2427      F2434   1.358       .  S
C2428      C2429   1.402       .  A
C2428      F2433   1.356       .  S
C2429      C2430   1.410       .  A
C2430      F2431   1.358       .  S
C2435      C2436   1.409       .  A
C2435      C2440   1.408       .  A
C2435      F2442   1.357       .  S
C2436      C2437   1.408       .  A
C2437      C2438   1.401       .  A
C2437      F2444   1.357       .  S
C2438      C2439   1.410       .  A
C2438      F2443   1.357       .  S
C2439      C2440   1.411       .  A
C2440      F2441   1.357       .  S
C2445      C2446   1.405       .  A
C2445      C2450   1.389       .  A
C2445      F2452   1.358       .  S
C2446      C2447   1.411       .  A
C2447      C2448   1.413       .  A
C2447      F2454   1.357       .  S
C2448      C2449   1.417       .  A
C2448      F2453   1.354       .  S
C2449      C2450   1.415       .  A
C2450      F2451   1.359       .  S
C2455      C2456   1.402       .  A
C2455      C2460   1.400       .  A
C2455      F2462   1.358       .  S
C2456      C2457   1.404       .  A
C2457      C2458   1.399       .  A
C2457      F2464   1.358       .  S
C2458      C2459   1.416       .  A
C2458      F2463   1.356       .  S
C2459      C2460   1.418       .  A
C2460      F2461   1.357       .  S
C2465      C2466   1.407       .  A
C2465      C2470   1.404       .  A
C2465      F2472   1.357       .  S
C2466      C2467   1.404       .  A
C2467      C2468   1.390       .  A
C2467      F2474   1.358       .  S
C2468      C2469   1.414       .  A
C2468      F2473   1.358       .  S
C2469      C2470   1.417       .  A
C2470      F2471   1.354       .  S
C2475      C2476   1.412       .  A
C2475      C2480   1.412       .  A
C2475      F2482   1.357       .  S
C2476      C2477   1.411       .  A
C2477      C2478   1.395       .  A
C2477      F2484   1.358       .  S
C2478      C2479   1.406       .  A
C2478      F2483   1.359       .  S
C2479      C2480   1.409       .  A
C2480      F2481   1.357       .  S
C2485      C2486   1.410       .  A
C2485      C2490   1.405       .  A
C2485      F2492   1.357       .  S
C2486      C2487   1.412       .  A
C2487      C2488   1.403       .  A
C2487      F2494   1.357       .  S
C2488      C2489   1.409       .  A
C2488      F2493   1.357       .  S
C2489      C2490   1.410       .  A
C2490      F2491   1.357       .  S
C2495      C2496   1.405       .  A
C2495      C2500   1.403       .  A
C2495      F2502   1.358       .  S
C2496      C2497   1.411       .  A
C2497      C2498   1.404       .  A
C2497      F2504   1.358       .  S
C2498      C2499   1.404       .  A
C2498      F2503   1.357       .  S
C2499      C2500   1.411       .  A
C2500      F2501   1.358       .  S
C2505      C2506   1.421       .  A
C2505      C2510   1.400       .  A
C2505      F2512   1.351       .  S
C2506      C2507   1.418       .  A
C2507      C2508   1.398       .  A
C2507      F2514   1.359       .  S
C2508      C2509   1.399       .  A
C2508      F2513   1.358       .  S
C2509      C2510   1.399       .  A
C2510      F2511   1.358       .  S
C2515      C2516   1.405       .  A
C2515      C2520   1.393       .  A
C2515      F2522   1.358       .  S
C2516      C2517   1.408       .  A
C2517      C2518   1.408       .  A
C2517      F2524   1.357       .  S
C2518      C2519   1.419       .  A
C2518      F2523   1.354       .  S
C2519      C2520   1.415       .  A
C2520      F2521   1.358       .  S
C2525      C2526   1.402       .  A
C2525      C2530   1.398       .  A
C2525      F2532   1.358       .  S
C2526      C2527   1.403       .  A
C2527      C2528   1.406       .  A
C2527      F2534   1.358       .  S
C2528      C2529   1.420       .  A
C2528      F2533   1.358       .  S
C2529      C2530   1.419       .  A
C2530      F2531   1.353       .  S
C2535      C2536   1.408       .  A
C2535      C2540   1.403       .  A
C2535      F2542   1.357       .  S
C2536      C2537   1.409       .  A
C2537      C2538   1.407       .  A
C2537      F2544   1.357       .  S
C2538      C2539   1.411       .  A
C2538      F2543   1.357       .  S
C2539      C2540   1.413       .  A
C2540      F2541   1.357       .  S
C2545      C2546   1.399       .  A
C2545      C2550   1.401       .  A
C2545      F2552   1.358       .  S
C2546      C2547   1.401       .  A
C2547      C2548   1.402       .  A
C2547      F2554   1.358       .  S
C2548      C2549   1.418       .  A
C2548      F2553   1.357       .  S
C2549      C2550   1.417       .  A
C2550      F2551   1.357       .  S
C2555      C2556   1.412       .  A
C2555      C2560   1.410       .  A
C2555      F2562   1.357       .  S
C2556      C2557   1.409       .  A
C2557      C2558   1.393       .  A
C2557      F2564   1.358       .  S
C2558      C2559   1.405       .  A
C2558      F2563   1.359       .  S
C2559      C2560   1.407       .  A
C2560      F2561   1.357       .  S
C2565      C2566   1.405       .  A
C2565      C2570   1.408       .  A
C2565      F2572   1.358       .  S
C2566      C2567   1.402       .  A
C2567      C2568   1.390       .  A
C2567      F2574   1.359       .  S
C2568      C2569   1.416       .  A
C2568      F2573   1.357       .  S
C2569      C2570   1.420       .  A
C2570      F2571   1.355       .  S
C2575      C2576   1.410       .  A
C2575      C2580   1.402       .  A
C2575      F2582   1.358       .  S
C2576      C2577   1.402       .  A
C2577      C2578   1.402       .  A
C2577      F2584   1.357       .  S
C2578      C2579   1.412       .  A
C2578      F2583   1.358       .  S
C2579      C2580   1.405       .  A
C2580      F2581   1.358       .  S
C2585      C2586   1.408       .  A
C2585      C2590   1.403       .  A
C2585      F2592   1.358       .  S
C2586      C2587   1.406       .  A
C2587      C2588   1.405       .  A
C2587      F2594   1.357       .  S
C2588      C2589   1.412       .  A
C2588      F2593   1.357       .  S
C2589      C2590   1.410       .  A
C2590      F2591   1.357       .  S
C2595      C2596   1.405       .  A
C2595      C2600   1.400       .  A
C2595      F2602   1.358       .  S
C2596      C2597   1.406       .  A
C2597      C2598   1.401       .  A
C2597      F2604   1.358       .  S
C2598      C2599   1.409       .  A
C2598      F2603   1.357       .  S
C2599      C2600   1.412       .  A
C2600      F2601   1.358       .  S
C2605      C2606   1.406       .  A
C2605      C2610   1.404       .  A
C2605      F2612   1.358       .  S
C2606      C2607   1.404       .  A
C2607      C2608   1.397       .  A
C2607      F2614   1.358       .  S
C2608      C2609   1.406       .  A
C2608      F2613   1.357       .  S
C2609      C2610   1.409       .  A
C2610      F2611   1.358       .  S
C2615      C2616   1.417       .  A
C2615      C2620   1.401       .  A
C2615      F2622   1.357       .  S
C2616      C2617   1.416       .  A
C2617      C2618   1.399       .  A
C2617      F2624   1.357       .  S
C2618      C2619   1.405       .  A
C2618      F2623   1.358       .  S
C2619      C2620   1.404       .  A
C2620      F2621   1.357       .  S
C2625      C2626   1.405       .  A
C2625      C2630   1.402       .  A
C2625      F2632   1.357       .  S
C2626      C2627   1.411       .  A
C2627      C2628   1.400       .  A
C2627      F2634   1.358       .  S
C2628      C2629   1.402       .  A
C2628      F2633   1.358       .  S
C2629      C2630   1.406       .  A
C2630      F2631   1.358       .  S
C2635      C2636   1.409       .  A
C2635      C2640   1.404       .  A
C2635      F2642   1.357       .  S
C2636      C2637   1.406       .  A
C2637      C2638   1.401       .  A
C2637      F2644   1.358       .  S
C2638      C2639   1.410       .  A
C2638      F2643   1.357       .  S
C2639      C2640   1.411       .  A
C2640      F2641   1.357       .  S
C2645      C2646   1.408       .  A
C2645      C2650   1.413       .  A
C2645      F2652   1.357       .  S
C2646      C2647   1.404       .  A
C2647      C2648   1.392       .  A
C2647      F2654   1.358       .  S
C2648      C2649   1.416       .  A
C2648      F2653   1.358       .  S
C2649      C2650   1.419       .  A
C2650      F2651   1.356       .  S
C2655      C2656   1.405       .  A
C2655      C2660   1.399       .  A
C2655      F2662   1.358       .  S
C2656      C2657   1.404       .  A
C2657      C2658   1.401       .  A
C2657      F2664   1.357       .  S
C2658      C2659   1.417       .  A
C2658      F2663   1.355       .  S
C2659      C2660   1.416       .  A
C2660      F2661   1.358       .  S
C2665      C2666   1.401       .  A
C2665      C2670   1.403       .  A
C2665      F2672   1.358       .  S
C2666      C2667   1.408       .  A
C2667      C2668   1.401       .  A
C2667      F2674   1.358       .  S
C2668      C2669   1.405       .  A
C2668      F2673   1.357       .  S
C2669      C2670   1.415       .  A
C2670      F2671   1.358       .  S
C2675      C2676   1.403       .  A
C2675      C2680   1.394       .  A
C2675      F2682   1.358       .  S
C2676      C2677   1.408       .  A
C2677      C2678   1.410       .  A
C2677      F2684   1.357       .  S
C2678      C2679   1.412       .  A
C2678      F2683   1.357       .  S
C2679      C2680   1.411       .  A
C2680      F2681   1.358       .  S
C2685      C2686   1.410       .  A
C2685      C2690   1.406       .  A
C2685      F2692   1.357       .  S
C2686      C2687   1.411       .  A
C2687      C2688   1.407       .  A
C2687      F2694   1.357       .  S
C2688      C2689   1.409       .  A
C2688      F2693   1.357       .  S
C2689      C2690   1.412       .  A
C2690      F2691   1.357       .  S
C2695      C2696   1.410       .  A
C2695      C2700   1.409       .  A
C2695      F2702   1.357       .  S
C2696      C2697   1.404       .  A
C2697      C2698   1.392       .  A
C2697      F2704   1.358       .  S
C2698      C2699   1.410       .  A
C2698      F2703   1.358       .  S
C2699      C2700   1.408       .  A
C2700      F2701   1.357       .  S
C2705      C2706   1.402       .  A
C2705      C2710   1.403       .  A
C2705      F2712   1.358       .  S
C2706      C2707   1.408       .  A
C2707      C2708   1.400       .  A
C2707      F2714   1.358       .  S
C2708      C2709   1.403       .  A
C2708      F2713   1.357       .  S
C2709      C2710   1.412       .  A
C2710      F2711   1.358       .  S
C2715      C2716   1.403       .  A
C2715      C2720   1.401       .  A
C2715      F2722   1.358       .  S
C2716      C2717   1.405       .  A
C2717      C2718   1.401       .  A
C2717      F2724   1.358       .  S
C2718      C2719   1.417       .  A
C2718      F2723   1.357       .  S
C2719      C2720   1.420       .  A
C2720      F2721   1.356       .  S
C2725      C2726   1.402       .  A
C2725      C2730   1.397       .  A
C2725      F2732   1.358       .  S
C2726      C2727   1.403       .  A
C2727      C2728   1.403       .  A
C2727      F2734   1.358       .  S
C2728      C2729   1.419       .  A
C2728      F2733   1.357       .  S
C2729      C2730   1.418       .  A
C2730      F2731   1.356       .  S
C2735      C2736   1.408       .  A
C2735      C2740   1.402       .  A
C2735      F2742   1.357       .  S
C2736      C2737   1.408       .  A
C2737      C2738   1.406       .  A
C2737      F2744   1.358       .  S
C2738      C2739   1.411       .  A
C2738      F2743   1.357       .  S
C2739      C2740   1.409       .  A
C2740      F2741   1.357       .  S
C2745      C2746   1.425       .  A
C2745      C2750   1.404       .  A
C2745      F2752   1.356       .  S
C2746      C2747   1.422       .  A
C2747      C2748   1.403       .  A
C2747      F2754   1.354       .  S
C2748      C2749   1.404       .  A
C2748      F2753   1.358       .  S
C2749      C2750   1.403       .  A
C2750      F2751   1.355       .  S
C2755      C2756   1.420       .  A
C2755      C2760   1.406       .  A
C2755      F2762   1.356       .  S
C2756      C2757   1.421       .  A
C2757      C2758   1.401       .  A
C2757      F2764   1.356       .  S
C2758      C2759   1.412       .  A
C2758      F2763   1.357       .  S
C2759      C2760   1.409       .  A
C2760      F2761   1.356       .  S
C2765      C2766   1.424       .  A
C2765      C2770   1.397       .  A
C2765      F2772   1.354       .  S
C2766      C2767   1.428       .  A
C2767      C2768   1.405       .  A
C2767      F2774   1.355       .  S
C2768      C2769   1.399       .  A
C2768      F2773   1.358       .  S
C2769      C2770   1.397       .  A
C2770      F2771   1.358       .  S
C2775      C2776   1.425       .  A
C2775      C2780   1.402       .  A
C2775      F2782   1.356       .  S
C2776      C2777   1.427       .  A
C2777      C2778   1.402       .  A
C2777      F2784   1.355       .  S
C2778      C2779   1.398       .  A
C2778      F2783   1.358       .  S
C2779      C2780   1.397       .  A
C2780      F2781   1.357       .  S
C2785      C2786   1.424       .  A
C2785      C2790   1.404       .  A
C2785      F2792   1.355       .  S
C2786      C2787   1.423       .  A
C2787      C2788   1.403       .  A
C2787      F2794   1.356       .  S
C2788      C2789   1.403       .  A
C2788      F2793   1.358       .  S
C2789      C2790   1.401       .  A
C2790      F2791   1.351       .  S
C2795      C2796   1.427       .  A
C2795      C2800   1.404       .  A
C2795      F2802   1.356       .  S
C2796      C2797   1.423       .  A
C2797      C2798   1.401       .  A
C2797      F2804   1.354       .  S
C2798      C2799   1.400       .  A
C2798      F2803   1.358       .  S
C2799      C2800   1.400       .  A
C2800      F2801   1.355       .  S
C2805      C2806   1.421       .  A
C2805      C2810   1.399       .  A
C2805      F2812   1.356       .  S
C2806      C2807   1.427       .  A
C2807      C2808   1.406       .  A
C2807      F2814   1.355       .  S
C2808      C2809   1.401       .  A
C2808      F2813   1.358       .  S
C2809      C2810   1.403       .  A
C2810      F2811   1.358       .  S
C2815      C2816   1.421       .  A
C2815      C2820   1.410       .  A
C2815      F2822   1.357       .  S
C2816      C2817   1.422       .  A
C2817      C2818   1.399       .  A
C2817      F2824   1.356       .  S
C2818      C2819   1.411       .  A
C2818      F2823   1.358       .  S
C2819      C2820   1.411       .  A
C2820      F2821   1.354       .  S
C2825      C2826   1.426       .  A
C2825      C2830   1.403       .  A
C2825      F2832   1.354       .  S
C2826      C2827   1.427       .  A
C2827      C2828   1.406       .  A
C2827      F2834   1.355       .  S
C2828      C2829   1.400       .  A
C2828      F2833   1.358       .  S
C2829      C2830   1.397       .  A
C2830      F2831   1.358       .  S
C2835      C2836   1.427       .  A
C2835      C2840   1.407       .  A
C2835      F2842   1.356       .  S
C2836      C2837   1.424       .  A
C2837      C2838   1.400       .  A
C2837      F2844   1.354       .  S
C2838      C2839   1.399       .  A
C2838      F2843   1.358       .  S
C2839      C2840   1.400       .  A
C2840      F2841   1.358       .  S
C2845      C2846   1.424       .  A
C2845      C2850   1.400       .  A
C2845      F2852   1.355       .  S
C2846      C2847   1.422       .  A
C2847      C2848   1.410       .  A
C2847      F2854   1.356       .  S
C2848      C2849   1.409       .  A
C2848      F2853   1.354       .  S
C2849      C2850   1.410       .  A
C2850      F2851   1.358       .  S
C2855      C2856   1.422       .  A
C2855      C2860   1.407       .  A
C2855      F2862   1.356       .  S
C2856      C2857   1.421       .  A
C2857      C2858   1.403       .  A
C2857      F2864   1.356       .  S
C2858      C2859   1.413       .  A
C2858      F2863   1.357       .  S
C2859      C2860   1.409       .  A
C2860      F2861   1.355       .  S
C2865      C2866   1.422       .  A
C2865      C2870   1.400       .  A
C2865      F2872   1.357       .  S
C2866      C2867   1.427       .  A
C2867      C2868   1.410       .  A
C2867      F2874   1.355       .  S
C2868      C2869   1.404       .  A
C2868      F2873   1.358       .  S
C2869      C2870   1.404       .  A
C2870      F2871   1.358       .  S
C2875      C2876   1.418       .  A
C2875      C2880   1.409       .  A
C2875      F2882   1.357       .  S
C2876      C2877   1.424       .  A
C2877      C2878   1.397       .  A
C2877      F2884   1.356       .  S
C2878      C2879   1.411       .  A
C2878      F2883   1.357       .  S
C2879      C2880   1.416       .  A
C2880      F2881   1.353       .  S
C2885      C2886   1.427       .  A
C2885      C2890   1.407       .  A
C2885      F2892   1.356       .  S
C2886      C2887   1.421       .  A
C2887      C2888   1.399       .  A
C2887      F2894   1.354       .  S
C2888      C2889   1.403       .  A
C2888      F2893   1.358       .  S
C2889      C2890   1.402       .  A
C2890      F2891   1.357       .  S
C2895      C2896   1.429       .  A
C2895      C2900   1.406       .  A
C2895      F2902   1.355       .  S
C2896      C2897   1.421       .  A
C2897      C2898   1.401       .  A
C2897      F2904   1.357       .  S
C2898      C2899   1.403       .  A
C2898      F2903   1.358       .  S
C2899      C2900   1.400       .  A
C2900      F2901   1.358       .  S
C2905      C2906   1.420       .  A
C2905      C2910   1.402       .  A
C2905      F2912   1.355       .  S
C2906      C2907   1.426       .  A
C2907      C2908   1.408       .  A
C2907      F2914   1.356       .  S
C2908      C2909   1.405       .  A
C2908      F2913   1.355       .  S
C2909      C2910   1.407       .  A
C2910      F2911   1.358       .  S
C2915      C2916   1.420       .  A
C2915      C2920   1.409       .  A
C2915      F2922   1.356       .  S
C2916      C2917   1.423       .  A
C2917      C2918   1.402       .  A
C2917      F2924   1.356       .  S
C2918      C2919   1.412       .  A
C2918      F2923   1.357       .  S
C2919      C2920   1.412       .  A
C2920      F2921   1.353       .  S
C2925      C2926   1.420       .  A
C2925      C2930   1.400       .  A
C2925      F2932   1.356       .  S
C2926      C2927   1.420       .  A
C2927      C2928   1.406       .  A
C2927      F2934   1.357       .  S
C2928      C2929   1.414       .  A
C2928      F2933   1.352       .  S
C2929      C2930   1.416       .  A
C2930      F2931   1.357       .  S
C2935      C2936   1.425       .  A
C2935      C2940   1.409       .  A
C2935      F2942   1.355       .  S
C2936      C2937   1.422       .  A
C2937      C2938   1.397       .  A
C2937      F2944   1.353       .  S
C2938      C2939   1.404       .  A
C2938      F2943   1.358       .  S
C2939      C2940   1.408       .  A
C2940      F2941   1.355       .  S
C2945      C2946   1.422       .  A
C2945      C2950   1.406       .  A
C2945      F2952   1.358       .  S
C2946      C2947   1.420       .  A
C2947      C2948   1.398       .  A
C2947      F2954   1.356       .  S
C2948      C2949   1.409       .  A
C2948      F2953   1.358       .  S
C2949      C2950   1.411       .  A
C2950      F2951   1.354       .  S
C2955      C2956   1.433       .  A
C2955      C2960   1.401       .  A
C2955      F2962   1.353       .  S
C2956      C2957   1.429       .  A
C2957      C2958   1.402       .  A
C2957      F2964   1.359       .  S
C2958      C2959   1.402       .  A
C2958      F2963   1.358       .  S
C2959      C2960   1.397       .  A
C2960      F2961   1.359       .  S
C2965      C2966   1.437       .  A
C2965      C2970   1.407       .  A
C2965      F2972   1.356       .  S
C2966      C2967   1.423       .  A
C2967      C2968   1.399       .  A
C2967      F2974   1.344       .  S
C2968      C2969   1.399       .  A
C2968      F2973   1.359       .  S
C2969      C2970   1.398       .  A
C2970      F2971   1.358       .  S
C2975      C2976   1.433       .  A
C2975      C2980   1.403       .  A
C2975      F2982   1.353       .  S
C2976      C2977   1.434       .  A
C2977      C2978   1.405       .  A
C2977      F2984   1.353       .  S
C2978      C2979   1.395       .  A
C2978      F2983   1.358       .  S
C2979      C2980   1.395       .  A
C2980      F2981   1.356       .  S
C2985      C2986   1.422       .  A
C2985      C2990   1.403       .  A
C2985      F2992   1.357       .  S
C2986      C2987   1.427       .  A
C2987      C2988   1.408       .  A
C2987      F2994   1.355       .  S
C2988      C2989   1.404       .  A
C2988      F2993   1.357       .  S
C2989      C2990   1.406       .  A
C2990      F2991   1.358       .  S
C2995      C2996   1.421       .  A
C2995      C3000   1.408       .  A
C2995      F3002   1.357       .  S
C2996      C2997   1.425       .  A
C2997      C2998   1.401       .  A
C2997      F3004   1.356       .  S
C2998      C2999   1.399       .  A
C2998      F3003   1.349       .  S
C2999      C3000   1.408       .  A
C3000      F3001   1.358       .  S
C3005      C3006   1.404       .  A
C3005      C3010   1.403       .  A
C3005      F3012   1.358       .  S
C3006      C3007   1.403       .  A
C3007      C3008   1.408       .  A
C3007      F3014   1.358       .  S
C3008      C3009   1.427       .  A
C3008      F3013   1.355       .  S
C3009      C3010   1.422       .  A
C3010      F3011   1.356       .  S
C3015      C3016   1.421       .  A
C3015      C3020   1.402       .  A
C3015      F3022   1.357       .  S
C3016      C3017   1.431       .  A
C3017      C3018   1.408       .  A
C3017      F3024   1.354       .  S
C3018      C3019   1.400       .  A
C3018      F3023   1.358       .  S
C3019      C3020   1.405       .  A
C3020      F3021   1.358       .  S
C3025      C3026   1.430       .  A
C3025      C3030   1.407       .  A
C3025      F3032   1.355       .  S
C3026      C3027   1.423       .  A
C3027      C3028   1.402       .  A
C3027      F3034   1.355       .  S
C3028      C3029   1.402       .  A
C3028      F3033   1.358       .  S
C3029      C3030   1.400       .  A
C3030      F3031   1.358       .  S
C3035      C3036   1.427       .  A
C3035      C3040   1.398       .  A
C3035      F3042   1.356       .  S
C3036      C3037   1.421       .  A
C3037      C3038   1.413       .  A
C3037      F3044   1.357       .  S
C3038      C3039   1.413       .  A
C3038      F3043   1.355       .  S
C3039      C3040   1.407       .  A
C3040      F3041   1.358       .  S
C3045      C3046   1.426       .  A
C3045      C3050   1.403       .  A
C3045      F3052   1.357       .  S
C3046      C3047   1.428       .  A
C3047      C3048   1.409       .  A
C3047      F3054   1.354       .  S
C3048      C3049   1.402       .  A
C3048      F3053   1.358       .  S
C3049      C3050   1.399       .  A
C3050      F3051   1.358       .  S
C3055      C3056   1.422       .  A
C3055      C3060   1.399       .  A
C3055      F3062   1.357       .  S
C3056      C3057   1.425       .  A
C3057      C3058   1.410       .  A
C3057      F3064   1.355       .  S
C3058      C3059   1.407       .  A
C3058      F3063   1.357       .  S
C3059      C3060   1.405       .  A
C3060      F3061   1.358       .  S
