geometry optimzed in LAMMPS
_audit_creation_date              2020-11-30 
_audit_creation_method            'lammps2cif' 
_symmetry_space_group_name_H-M    'P1' 
_symmetry_Int_Tables_number       1 
_symmetry_cell_setting            triclinic 
loop_ 
_symmetry_equiv_pos_as_xyz 
  x,y,z 
_cell_length_a                    40.93960155 
_cell_length_b                    78.43207767852905 
_cell_length_c                    107.16607640847808 
_cell_angle_alpha                 90.0467602487798 
_cell_angle_beta                  90.03580398998028 
_cell_angle_gamma                 89.9636567271412 
loop_ 
_atom_site_label 
_atom_site_type_symbol 
_atom_site_fract_x 
_atom_site_fract_y 
_atom_site_fract_z 
_atom_site_charge 
N1          N  0.94901362  0.30363251  0.29129398    -0.03600
C2          C  0.92373477  0.31431181  0.29405644    -0.01000
C3          C  0.89697077  0.31053730  0.28670634    -0.23900
C4          C  0.90566939  0.29705819  0.27926750    -0.24100
C5          C  0.93755925  0.29298999  0.28224173    -0.01100
H6          H  0.87301227  0.31635894  0.28722360     0.12700
H7          H  0.89008660  0.29054884  0.27263313     0.12700
N8          N  0.19042694  0.30290970  0.29564394    -0.03600
C9          C  0.21649559  0.30933219  0.30194824    -0.01000
C10         C  0.24525792  0.30292969  0.29710229    -0.23900
C11         C  0.23683824  0.29228898  0.28748423    -0.24100
C12         C  0.20313885  0.29249056  0.28674271    -0.01100
H13         H  0.26983594  0.30608146  0.30004545     0.12700
H14         H  0.25351546  0.28511551  0.28164726     0.12700
N15         N  0.94640266  0.19048767  0.21507947    -0.03600
C16         C  0.92077355  0.18561430  0.20778649    -0.01000
C17         C  0.89341023  0.19519365  0.21063358    -0.23900
C18         C  0.90235299  0.20645956  0.21979867     0.27100
C19         C  0.93489009  0.20339988  0.22234472    -0.01100
H20         H  0.86952209  0.19421509  0.20634262     0.12700
H21         H  0.88699007  0.21614094  0.22397820     0.12700
N22         N  0.18694995  0.18459266  0.22445391    -0.03600
C23         C  0.21258881  0.17404165  0.22198176    -0.01000
C24         C  0.23870256  0.17781216  0.22969906    -0.23900
C25         C  0.22899644  0.19092374  0.23727905    -0.24100
C26         C  0.19731085  0.19485022  0.23394194    -0.01100
H27         H  0.26257148  0.17187405  0.22962369     0.12700
H28         H  0.24356459  0.19709829  0.24439107     0.12700
N29         N  0.93594835  0.69169590  0.29457133    -0.03600
C30         C  0.90833662  0.68453420  0.29941780    -0.01000
C31         C  0.88105535  0.69060327  0.29323748    -0.23900
C32         C  0.89182812  0.70186854  0.28439005    -0.24100
C33         C  0.92539845  0.70230579  0.28535674    -0.01100
H34         H  0.85592188  0.68694306  0.29487672     0.12700
H35         H  0.87684384  0.70882318  0.27779832     0.12700
N36         N  0.17180645  0.71244863  0.30967404    -0.03600
C37         C  0.19517811  0.70699353  0.31778430    -0.01000
C38         C  0.21931511  0.71917383  0.31908297    -0.23900
C39         C  0.21083315  0.73258106  0.31153864    -0.24100
C40         C  0.18173686  0.72816621  0.30583851    -0.01100
H41         H  0.24132760  0.71814781  0.32462884     0.12700
H42         H  0.22507739  0.74399263  0.30997080     0.12700
N43         N  0.93689989  0.79613015  0.21227422    -0.03600
C44         C  0.91021118  0.80447560  0.20778245    -0.01000
C45         C  0.88193497  0.79669487  0.21187553    -0.23900
C46         C  0.89126463  0.78315970  0.21912291    -0.24100
C47         C  0.92500037  0.78306926  0.21926641    -0.01100
H48         H  0.85711183  0.80032942  0.20961258     0.12700
H49         H  0.87516279  0.77441871  0.22393671     0.12700
N50         N  0.17521895  0.81343343  0.22541520    -0.03600
C51         C  0.19909678  0.82418448  0.22136585    -0.01000
C52         C  0.22658324  0.82262182  0.22878139    -0.23900
C53         C  0.21973290  0.81052118  0.23762163    -0.24100
C54         C  0.18819744  0.80510773  0.23540336    -0.01100
H55         H  0.24977606  0.82902151  0.22749426     0.12700
H56         H  0.23612504  0.80597197  0.24482824     0.12700
N57         N  0.55286645  0.20466761  0.29669079    -0.03600
C58         C  0.57815350  0.19910238  0.30387637    -0.01000
C59         C  0.60512897  0.20939166  0.30220442    -0.23900
C60         C  0.59633756  0.22177251  0.29383858    -0.24100
C61         C  0.56413776  0.21874420  0.29060433    -0.01100
H62         H  0.62885829  0.20790295  0.30653150     0.12700
H63         H  0.61206821  0.23172950  0.29027915     0.12700
N64         N  0.31317717  0.19286648  0.28673734    -0.03600
C65         C  0.28798998  0.18375294  0.29161366    -0.01000
C66         C  0.25928942  0.18744695  0.28539064    -0.23900
C67         C  0.26681850  0.19917504  0.27636664    -0.24100
C68         C  0.29992650  0.20232919  0.27737466    -0.01100
H69         H  0.23528270  0.18234139  0.28737708     0.12700
H70         H  0.24970821  0.20532047  0.27010277     0.12700
N71         N  0.30808360  0.32047743  0.22540989    -0.03600
C72         C  0.28349751  0.33112954  0.22186304    -0.01000
C73         C  0.25720513  0.32953201  0.22985565    -0.23900
C74         C  0.26553987  0.31747912  0.23855811    -0.24100
C75         C  0.29670858  0.31202384  0.23561281    -0.01100
H76         H  0.23383268  0.33589903  0.22907532     0.12700
H77         H  0.24984607  0.31255699  0.24583531     0.12700
N78         N  0.54309557  0.29993441  0.20887953    -0.03600
C79         C  0.56698905  0.30574016  0.20114641    -0.01000
C80         C  0.59335494  0.29476071  0.20129436    -0.23900
C81         C  0.58568471  0.28178273  0.20933729    -0.24100
C82         C  0.55482480  0.28521808  0.21394617    -0.01100
H83         H  0.61637811  0.29645953  0.19648310     0.12700
H84         H  0.60171012  0.27145265  0.21206823     0.12700
In85       In  0.73610183  0.59636576  0.37267210     1.36900
C86         C  0.67046176  0.59948430  0.37025007     0.77400
O87         O  0.73938028  0.57328759  0.36007034    -0.61000
O88         O  0.75588611  0.57087515  0.37870656    -0.51900
C89         C  0.77904981  0.61290953  0.35771644     0.70100
O90         O  0.75053863  0.60895459  0.35434572    -0.46800
C91         C  0.74418432  0.60621503  0.39645875     0.74800
O92         O  0.68984893  0.61182211  0.36891794    -0.58600
O93         O  0.74693052  0.59100323  0.39285910    -0.48700
O94         O  0.68462092  0.58566430  0.37272787    -0.55100
C95         C  0.75094404  0.56360524  0.36838697     0.85000
O96         O  0.78562269  0.60837197  0.36870580    -0.57000
O97         O  0.73742087  0.61658102  0.38782736    -0.60200
In98       In  0.36003121  0.59999506  0.37663591     1.36900
C99         C  0.42345535  0.60482845  0.37111680     0.77400
O100        O  0.36065615  0.61997868  0.39166725    -0.61000
O101        O  0.34073525  0.59584845  0.39617638    -0.51900
C102        C  0.31651889  0.61646046  0.36204512     0.70100
O103        O  0.34648580  0.61544076  0.35945023    -0.46800
C104        C  0.35711863  0.56601233  0.37585700     0.74800
O105        O  0.40870887  0.61318498  0.37944148    -0.58600
O106        O  0.37417736  0.57412813  0.38364082    -0.48700
O107        O  0.40526594  0.59478981  0.36510709    -0.55100
C108        C  0.34784950  0.61064678  0.39990403     0.85000
O109        O  0.30877043  0.60871599  0.37188909    -0.57000
O110        O  0.34058209  0.57533957  0.36862108    -0.60200
In111      In  0.74708537  0.60587081  0.64428084     1.36900
C112        C  0.68413169  0.61166535  0.65019734     0.77400
O113        O  0.74462653  0.62468438  0.62855846    -0.61000
O114        O  0.76207602  0.59982054  0.62452479    -0.51900
C115        C  0.79209320  0.62303524  0.65761842     0.70100
O116        O  0.76438133  0.61923772  0.66193845    -0.46800
C117        C  0.75348922  0.57205083  0.64540093     0.74800
O118        O  0.69893689  0.61961924  0.64171295    -0.58600
O119        O  0.73239045  0.57956833  0.63885934    -0.48700
O120        O  0.70212581  0.60155033  0.65623251    -0.55100
C121        C  0.75481076  0.61438847  0.62037510     0.85000
O122        O  0.79662000  0.61799439  0.64661148    -0.57000
O123        O  0.77187489  0.58191572  0.65151231    -0.60200
In124      In  0.37496855  0.59950616  0.64435454     1.36900
C125        C  0.43842144  0.60519700  0.64977802     0.77400
O126        O  0.35626854  0.57483771  0.65275953    -0.61000
O127        O  0.38103710  0.57369985  0.63546769    -0.51900
C128        C  0.33426685  0.61522797  0.66056979     0.70100
O129        O  0.36169271  0.60925928  0.66365559    -0.46800
C130        C  0.36255803  0.61050092  0.62110671     0.74800
O131        O  0.41861644  0.61710465  0.64738981    -0.58600
O132        O  0.34473725  0.59989869  0.62671072    -0.48700
O133        O  0.42550951  0.59060933  0.64970121    -0.55100
C134        C  0.36633116  0.56559338  0.64390957     0.85000
O135        O  0.32762095  0.61313036  0.64920745    -0.57000
O136        O  0.38658956  0.61561813  0.62745487    -0.60200
In137      In  0.33377547  0.66728481  0.51061647     1.36900
C138        C  0.39873695  0.66510746  0.50956968     0.77400
O139        O  0.31488826  0.64767568  0.52450826    -0.61000
O140        O  0.33853831  0.66987164  0.53129427    -0.51900
C141        C  0.29619787  0.69499030  0.50999502     0.70100
O142        O  0.32702627  0.69555972  0.51016773    -0.46800
C143        C  0.32232759  0.65465726  0.48789010     0.74800
O144        O  0.38042572  0.65227549  0.51048965    -0.58600
O145        O  0.31731064  0.64603941  0.49767595    -0.48700
O146        O  0.38376087  0.67916799  0.50920962    -0.55100
C147        C  0.32576167  0.65569375  0.53388706     0.85000
O148        O  0.28439633  0.68010773  0.51063725    -0.57000
O149        O  0.33138628  0.66974678  0.48986548    -0.60200
In150      In  0.70940340  0.65655076  0.50748034     1.36900
C151        C  0.64424827  0.65564143  0.50665671     0.77400
O152        O  0.74337219  0.65517128  0.49093355    -0.61000
O153        O  0.71025870  0.63488741  0.49346760    -0.51900
C154        C  0.71868364  0.69005853  0.50688644     0.70100
O155        O  0.69198976  0.68324902  0.50994213    -0.46800
C156        C  0.73321464  0.64529926  0.52941965     0.74800
O157        O  0.66052722  0.65030210  0.51585297    -0.58600
O158        O  0.72168459  0.63538163  0.52127560    -0.48700
O159        O  0.66141661  0.66097724  0.49771287    -0.55100
C160        C  0.73152101  0.64162843  0.48656868     0.85000
O161        O  0.74113046  0.67962782  0.50415913    -0.57000
O162        O  0.73477110  0.66055298  0.52592642    -0.60200
In163      In  0.75709721  0.40297899  0.36847148     1.36900
C164        C  0.69231461  0.39812793  0.36581042     0.77400
O165        O  0.76824955  0.38568453  0.38465010    -0.61000
O166        O  0.76316590  0.41206577  0.38832851    -0.51900
C167        C  0.79945316  0.38398061  0.35494822     0.70100
O168        O  0.77249187  0.37830184  0.35879454    -0.46800
C169        C  0.76534341  0.43600092  0.36333567     0.74800
O170        O  0.71105948  0.40052456  0.35661300    -0.58600
O171        O  0.78479156  0.42764361  0.37011936    -0.48700
O172        O  0.70690268  0.39765956  0.37614690    -0.55100
C173        C  0.76798948  0.39738699  0.39273033     0.85000
O174        O  0.80418272  0.39935092  0.35773910    -0.57000
O175        O  0.74243005  0.42725323  0.35874252    -0.60200
In176      In  0.38179413  0.40391749  0.37172636     1.36900
C177        C  0.44608375  0.40056575  0.36701867     0.77400
O178        O  0.36980046  0.42862798  0.36156745    -0.61000
O179        O  0.37585957  0.42912943  0.38118407    -0.51900
C180        C  0.33857729  0.38670131  0.35737884     0.70100
O181        O  0.36415697  0.39338215  0.35304773    -0.46800
C182        C  0.37443936  0.39260328  0.39505526     0.74800
O183        O  0.42716833  0.38797060  0.36810701    -0.58600
O184        O  0.35715930  0.40432408  0.39044329    -0.48700
O185        O  0.43195867  0.41475442  0.36800493    -0.55100
C186        C  0.37026348  0.43752915  0.37140596     0.85000
O187        O  0.33498792  0.38909152  0.36888302    -0.57000
O188        O  0.39571515  0.38667093  0.38770801    -0.60200
In189      In  0.73770663  0.41070012  0.64006152     1.36900
C190        C  0.67297813  0.40428022  0.64076788     0.77400
O191        O  0.76945716  0.43441685  0.64047725    -0.61000
O192        O  0.72089585  0.43629431  0.64704718    -0.51900
C193        C  0.77682703  0.39339242  0.65598809     0.70100
O194        O  0.75721428  0.40483354  0.65948765    -0.46800
C195        C  0.75120377  0.40288331  0.61623238     0.74800
O196        O  0.68663343  0.41341877  0.63266799    -0.58600
O197        O  0.75533435  0.41764194  0.62067448    -0.48700
O198        O  0.69255609  0.39814123  0.64869639    -0.55100
C199        C  0.74732728  0.44392068  0.64482555     0.85000
O200        O  0.77594083  0.39060696  0.64442379    -0.57000
O201        O  0.74130514  0.39209137  0.62409626    -0.60200
In202      In  0.36034833  0.40343954  0.63830607     1.36900
C203        C  0.42547263  0.40193605  0.64178905     0.77400
O204        O  0.37423803  0.38515705  0.62283116    -0.61000
O205        O  0.33486068  0.40210388  0.61970985    -0.51900
C206        C  0.31809829  0.38656802  0.65328630     0.70100
O207        O  0.34590575  0.39144121  0.65688320    -0.46800
C208        C  0.34922805  0.43704688  0.64017745     0.74800
O209        O  0.41075873  0.41464216  0.63732661    -0.58600
O210        O  0.35175236  0.42749473  0.64960847    -0.48700
O211        O  0.40673873  0.38979405  0.64474043    -0.55100
C212        C  0.35275599  0.39047995  0.61532856     0.85000
O213        O  0.31193811  0.39045014  0.64214337    -0.57000
O214        O  0.35065659  0.42923209  0.62992864    -0.60200
In215      In  0.35583731  0.33278508  0.50496901     1.36900
C216        C  0.42048630  0.33613187  0.50616101     0.77400
O217        O  0.36339329  0.33172995  0.48443962    -0.61000
O218        O  0.33690527  0.35287828  0.49158850    -0.51900
C219        C  0.31989652  0.30440844  0.50371454     0.70100
O220        O  0.35021623  0.30438575  0.50587017    -0.46800
C221        C  0.34115874  0.34472406  0.52755282     0.74800
O222        O  0.40112438  0.34856879  0.50689742    -0.58600
O223        O  0.35291847  0.33010706  0.52565983    -0.48700
O224        O  0.40669400  0.32181793  0.50504910    -0.55100
C225        C  0.34916720  0.34562619  0.48213741     0.85000
O226        O  0.30776282  0.31908617  0.50217587    -0.57000
O227        O  0.33514224  0.35309440  0.51774085    -0.60200
In228      In  0.72958531  0.35232552  0.50455447     1.36900
C229        C  0.66498756  0.35016316  0.50596785     0.77400
O230        O  0.76253287  0.35509108  0.52154408    -0.61000
O231        O  0.72544142  0.37330759  0.51894434    -0.51900
C232        C  0.74137171  0.31904179  0.50256934     0.70100
O233        O  0.71705116  0.32618962  0.49757037    -0.46800
C234        C  0.75180183  0.36674608  0.48346194     0.74800
O235        O  0.67943183  0.35903612  0.49788333    -0.58600
O236        O  0.76277995  0.35290504  0.48763926    -0.48700
O237        O  0.68367838  0.34250480  0.51346406    -0.55100
C238        C  0.74776965  0.36783970  0.52592055     0.85000
O239        O  0.76037024  0.32907735  0.50829011    -0.57000
O240        O  0.73175685  0.37391146  0.49062004    -0.60200
In241      In  0.12325908  0.09724170  0.36614500     1.36900
C242        C  0.05799543  0.10123607  0.36413075     0.77400
O243        O  0.11838215  0.07236697  0.35543204    -0.61000
O244        O  0.13324229  0.07150532  0.37434523    -0.51900
C245        C  0.16621677  0.11361507  0.35119081     0.70100
O246        O  0.14102378  0.12056432  0.35561910    -0.46800
C247        C  0.14026586  0.10916541  0.38864419     0.74800
O248        O  0.07666263  0.10202136  0.35476858    -0.58600
O249        O  0.15157873  0.09546757  0.38423804    -0.48700
O250        O  0.07275973  0.09838207  0.37420857    -0.55100
C251        C  0.12651019  0.06319659  0.36461566     0.85000
O252        O  0.16907937  0.09816646  0.35414715    -0.57000
O253        O  0.12145510  0.11704109  0.38131500    -0.60200
In254      In  0.74571611  0.09780189  0.36760116     1.36900
C255        C  0.81061346  0.10124008  0.36545629     0.77400
O256        O  0.74579722  0.11795230  0.38243864    -0.61000
O257        O  0.74057202  0.09214582  0.38804599    -0.51900
C258        C  0.70182845  0.11579547  0.35427775     0.70100
O259        O  0.72881953  0.11090449  0.34984382    -0.46800
C260        C  0.73256812  0.06529304  0.36245682     0.74800
O261        O  0.79097982  0.11027234  0.35918998    -0.58600
O262        O  0.71656259  0.07382321  0.37031765    -0.48700
O263        O  0.79688459  0.09079680  0.37264176    -0.55100
C264        C  0.74269339  0.10753478  0.39134309     0.85000
O265        O  0.69732610  0.11137356  0.36543816    -0.57000
O266        O  0.75364814  0.07376015  0.35657981    -0.60200
In267      In  0.13053618  0.09636335  0.63308529     1.36900
C268        C  0.06531661  0.10037200  0.63327335     0.77400
O269        O  0.13653480  0.11810375  0.61948156    -0.61000
O270        O  0.14267450  0.09294943  0.61273087    -0.51900
C271        C  0.17101500  0.11308296  0.64873082     0.70100
O272        O  0.14129215  0.11039513  0.65109149    -0.46800
C273        C  0.13896338  0.06313129  0.63817453     0.74800
O274        O  0.08406644  0.10917876  0.64004965    -0.58600
O275        O  0.15499730  0.07091357  0.62992864    -0.48700
O276        O  0.08006935  0.09005427  0.62624791    -0.55100
C277        C  0.14269638  0.10864735  0.61024508     0.85000
O278        O  0.18041684  0.10658460  0.63859227    -0.57000
O279        O  0.12010399  0.07258640  0.64436794    -0.60200
In280      In  0.75154326  0.09796668  0.63667960     1.36900
C281        C  0.81725911  0.10002589  0.63678539     0.77400
O282        O  0.76240388  0.07439136  0.64808462    -0.61000
O283        O  0.72651236  0.07284181  0.63386492    -0.51900
C284        C  0.70966533  0.11593599  0.65123392     0.70100
O285        O  0.73863445  0.12060152  0.64912502    -0.46800
C286        C  0.74048063  0.10835610  0.61328130     0.74800
O287        O  0.80078997  0.09436393  0.62776831    -0.58600
O288        O  0.73688363  0.09314040  0.61675081    -0.48700
O289        O  0.80010701  0.10449468  0.64604626    -0.55100
C290        C  0.74255015  0.06509655  0.64214843     0.85000
O291        O  0.70244739  0.10198691  0.64612781    -0.57000
O292        O  0.74799952  0.11848896  0.62196724    -0.60200
In293      In  0.15812806  0.16519919  0.49914242     1.36900
C294        C  0.09431034  0.16054749  0.49859321     0.77400
O295        O  0.15625055  0.16737282  0.47848921    -0.61000
O296        O  0.17822223  0.14505918  0.48599512    -0.51900
C297        C  0.19203838  0.19412876  0.49975586     0.70100
O298        O  0.16131190  0.19361102  0.50056934    -0.46800
C299        C  0.16559687  0.15429109  0.52249541     0.74800
O300        O  0.10726860  0.17508688  0.49751751    -0.58600
O301        O  0.14912408  0.16720661  0.51949588    -0.48700
O302        O  0.11420498  0.14832413  0.49944857    -0.55100
C303        C  0.16921728  0.15309434  0.47633486     0.85000
O304        O  0.20558210  0.17971478  0.49860616    -0.57000
O305        O  0.18016568  0.14714047  0.51346004    -0.60200
In306      In  0.78746438  0.15807631  0.50263746     1.36900
C307        C  0.85131635  0.15316228  0.50499013     0.77400
O308        O  0.75641489  0.15932830  0.51992829    -0.61000
O309        O  0.78134566  0.13627792  0.51625737    -0.51900
C310        C  0.77560668  0.19139034  0.50152767     0.70100
O311        O  0.80392924  0.18516802  0.50228443    -0.46800
C312        C  0.76876985  0.14727639  0.48007565     0.74800
O313        O  0.83566852  0.16362960  0.51161846    -0.58600
O314        O  0.75700676  0.14096803  0.48994114    -0.48700
O315        O  0.83398714  0.14468882  0.49750182    -0.55100
C316        C  0.76366531  0.14461408  0.52370909     0.85000
O317        O  0.75293425  0.18045700  0.50128050    -0.57000
O318        O  0.78897933  0.15906148  0.48192021    -0.60200
In319      In  0.11883743  0.90119541  0.63921996     1.36900
C320        C  0.05448481  0.89844711  0.64345848     0.77400
O321        O  0.12914411  0.92538612  0.65012057    -0.61000
O322        O  0.12778820  0.92673681  0.63043302    -0.51900
C323        C  0.16049596  0.88461679  0.65450414     0.70100
O324        O  0.13367956  0.89075346  0.65812940    -0.46800
C325        C  0.12524350  0.88904488  0.61598641     0.74800
O326        O  0.07385840  0.88598143  0.64456532    -0.58600
O327        O  0.14663511  0.89818380  0.62117968    -0.48700
O328        O  0.06824622  0.91224008  0.64052660    -0.55100
C329        C  0.13109329  0.93469195  0.64056322     0.85000
O330        O  0.16567299  0.88663163  0.64303544    -0.57000
O331        O  0.10099379  0.88572485  0.62281802    -0.60200
In332      In  0.74562685  0.90274815  0.63940105     1.36900
C333        C  0.80813640  0.89488705  0.64420913     0.77400
O334        O  0.74156305  0.88492219  0.62296229    -0.61000
O335        O  0.73404007  0.91121789  0.61971291    -0.51900
C336        C  0.70188674  0.88584702  0.65376577     0.70100
O337        O  0.73092715  0.88860279  0.65715289    -0.46800
C338        C  0.74237080  0.93672268  0.64212513     0.74800
O339        O  0.79193339  0.88758418  0.63574043    -0.58600
O340        O  0.71980260  0.92690820  0.64569744    -0.48700
O341        O  0.79154609  0.90500115  0.65080686    -0.55100
C342        C  0.73553608  0.89646111  0.61509370     0.85000
O343        O  0.69524502  0.89192842  0.64319663    -0.57000
O344        O  0.76628685  0.92912183  0.63727084    -0.60200
In345      In  0.10479121  0.90139010  0.37203291     1.36900
C346        C  0.03927758  0.89805383  0.37028960     0.77400
O347        O  0.11871191  0.88112036  0.38597614    -0.61000
O348        O  0.11299185  0.90634551  0.39257948    -0.51900
C349        C  0.14622717  0.88359454  0.35722784     0.70100
O350        O  0.11876507  0.87804915  0.36069281    -0.46800
C351        C  0.11407706  0.93462124  0.36784680     0.74800
O352        O  0.05809114  0.89616918  0.36105595    -0.58600
O353        O  0.13042977  0.92617937  0.37566799    -0.48700
O354        O  0.05406695  0.90110655  0.38034714    -0.55100
C355        C  0.11968594  0.89109005  0.39520767     0.85000
O356        O  0.15210725  0.89852159  0.36096696    -0.57000
O357        O  0.09376072  0.92587539  0.36171961    -0.60200
In358      In  0.72659730  0.90306444  0.36822151     1.36900
C359        C  0.79181919  0.89847986  0.36694369     0.77400
O360        O  0.71676819  0.92958448  0.37524437    -0.61000
O361        O  0.73450620  0.92693613  0.35679027    -0.51900
C362        C  0.68407194  0.88593746  0.35340410     0.70100
O363        O  0.71261365  0.88086174  0.35567817    -0.46800
C364        C  0.71018219  0.89334642  0.39124469     0.74800
O365        O  0.77511369  0.90385694  0.35788068    -0.58600
O366        O  0.70462715  0.90818384  0.38719887    -0.48700
O367        O  0.77508524  0.89505700  0.37645158    -0.55100
C368        C  0.72568198  0.93695741  0.36536827     0.85000
O369        O  0.67745156  0.90002890  0.35842520    -0.57000
O370        O  0.72297092  0.88344077  0.38334196    -0.60200
In371      In  0.12538634  0.83138594  0.50508823     1.36900
C372        C  0.06104118  0.83628579  0.50517567     0.77400
O373        O  0.12043763  0.82942325  0.52570480    -0.61000
O374        O  0.14810650  0.85017784  0.51862260    -0.51900
C375        C  0.16004874  0.80249952  0.50496327     0.70100
O376        O  0.12935376  0.80268421  0.50385817    -0.46800
C377        C  0.13677348  0.84446422  0.48248338     0.74800
O378        O  0.07366741  0.82163060  0.50424784    -0.58600
O379        O  0.14820515  0.85124000  0.49226235    -0.48700
O380        O  0.08138761  0.84824435  0.50629921    -0.55100
C381        C  0.13628615  0.84282096  0.52810696     0.85000
O382        O  0.17282868  0.81705804  0.50608151    -0.57000
O383        O  0.12103837  0.83093497  0.48439086    -0.60200
In384      In  0.75293230  0.85108300  0.50313860     1.36900
C385        C  0.81780237  0.85313942  0.50174529     0.77400
O386        O  0.73867753  0.87208846  0.48947739    -0.61000
O387        O  0.72818045  0.84659019  0.48473215    -0.51900
C388        C  0.74450987  0.81778145  0.50606058     0.70100
O389        O  0.77183864  0.82492740  0.50751373    -0.46800
C390        C  0.73001139  0.86579872  0.52395293     0.74800
O391        O  0.80017813  0.84931455  0.49252248    -0.58600
O392        O  0.74693267  0.87373497  0.51603883    -0.48700
O393        O  0.80213534  0.85643868  0.51155896    -0.55100
C394        C  0.72778468  0.86191446  0.48136093     0.85000
O395        O  0.72125880  0.82780753  0.50353840    -0.57000
O396        O  0.72204209  0.85100055  0.52056705    -0.60200
N397        N  0.53216133  0.80992384  0.28681335    -0.03600
C398        C  0.55811435  0.81854162  0.29170503    -0.01000
C399        C  0.58531010  0.81643255  0.28427167    -0.23900
C400        C  0.57613648  0.80630974  0.27447049    -0.24100
C401        C  0.54348306  0.80240143  0.27615687    -0.01100
H402        H  0.60951300  0.82149952  0.28596090     0.12700
H403        H  0.59211031  0.80161112  0.26718770     0.12700
N404        N  0.29273990  0.79678101  0.29694945    -0.03600
C405        C  0.26704065  0.80378516  0.30320915    -0.01000
C406        C  0.23833962  0.79555333  0.30009581    -0.23900
C407        C  0.24625780  0.78316977  0.29161397    -0.24100
C408        C  0.27960023  0.78415747  0.28977955    -0.01100
H409        H  0.21413428  0.79834655  0.30360638     0.12700
H410        H  0.22938405  0.77469141  0.28695012     0.12700
N411        N  0.53948767  0.68754223  0.21935448    -0.03600
C412        C  0.56536446  0.67778626  0.21581371    -0.01000
C413        C  0.59178128  0.68087671  0.22350816    -0.23900
C414        C  0.58199595  0.69282932  0.23208319    -0.24100
C415        C  0.54985133  0.69676451  0.22937128    -0.01100
H416        H  0.61594782  0.67536126  0.22271879     0.12700
H417        H  0.59712890  0.69855592  0.23923056     0.12700
N418        N  0.30253055  0.70611299  0.20696776    -0.03600
C419        C  0.27871855  0.70003059  0.19931980    -0.01000
C420        C  0.25219642  0.71091072  0.19927138    -0.23900
C421        C  0.25964789  0.72413272  0.20714516    -0.24100
C422        C  0.29048338  0.72086564  0.21184538    -0.01100
H423        H  0.22918332  0.70896162  0.19448912     0.12700
H424        H  0.24341472  0.73441034  0.20979447     0.12700
N425        N  0.55143447  0.19693489  0.71239940    -0.03600
C426        C  0.57871099  0.19040427  0.70685207    -0.01000
C427        C  0.60636525  0.19592093  0.71304691    -0.23900
C428        C  0.59612407  0.20609558  0.72267947    -0.24100
C429        C  0.56244418  0.20662098  0.72209875    -0.01100
H430        H  0.63145155  0.19288992  0.71073197     0.12700
H431        H  0.61166190  0.21291751  0.72916065     0.12700
N432        N  0.31091313  0.20421903  0.70858610    -0.03600
C433        C  0.28380191  0.19627136  0.70404359    -0.01000
C434        C  0.25594998  0.20439473  0.70825404    -0.23900
C435        C  0.26597764  0.21774026  0.71558406    -0.24100
C436        C  0.29971069  0.21735641  0.71573187    -0.01100
H437        H  0.23092986  0.20073869  0.70639150     0.12700
H438        H  0.25030188  0.22623516  0.72083963     0.12700
N439        N  0.54691494  0.31459601  0.78359625    -0.03600
C440        C  0.57302455  0.32351908  0.78798614    -0.01000
C441        C  0.59937412  0.32173726  0.78005811    -0.23900
C442        C  0.58943995  0.31141886  0.77046030    -0.24100
C443        C  0.55727168  0.30713247  0.77281335    -0.01100
H444        H  0.62355713  0.32705653  0.78131673     0.12700
H445        H  0.60457242  0.30685889  0.76287693     0.12700
N446        N  0.30935775  0.29973756  0.79611619    -0.03600
C447        C  0.28331304  0.30574447  0.80275340    -0.01000
C448        C  0.25608512  0.29581564  0.80047613    -0.23900
C449        C  0.26530072  0.28334473  0.79224956    -0.24100
C450        C  0.29802545  0.28591169  0.78967343    -0.01100
H451        H  0.23205503  0.29739094  0.80452104     0.12700
H452        H  0.24957163  0.27356114  0.78840253     0.12700
N453        N  0.95105715  0.70784508  0.71426750    -0.03600
C454        C  0.92558071  0.70362305  0.70670589    -0.01000
C455        C  0.90014292  0.71501917  0.70813404    -0.23900
C456        C  0.91015217  0.72686000  0.71668687    -0.24100
C457        C  0.94140686  0.72231215  0.72026888    -0.01100
H458        H  0.87658959  0.71458704  0.70354491     0.12700
H459        H  0.89594898  0.73754310  0.72009004     0.12700
N460        N  0.19109311  0.69943671  0.72327096    -0.03600
C461        C  0.21528358  0.68743835  0.72260399    -0.01000
C462        C  0.24067816  0.69173748  0.73053594    -0.23900
C463        C  0.23247827  0.70684304  0.73609089    -0.24100
C464        C  0.20220538  0.71137014  0.73152977    -0.01100
H465        H  0.26376973  0.68515741  0.73154924     0.12700
H466        H  0.24748395  0.71415364  0.74244339     0.12700
N467        N  0.94129632  0.80597424  0.79898309    -0.03600
C468        C  0.91463079  0.81235649  0.80493717    -0.01000
C469        C  0.88810837  0.80172710  0.80327448    -0.23900
C470        C  0.89853617  0.78836287  0.79605603    -0.24100
C471        C  0.93116017  0.79126081  0.79348392    -0.01100
H472        H  0.86361195  0.80365459  0.80681620     0.12700
H473        H  0.88354806  0.77801355  0.79261004     0.12700
N474        N  0.17574184  0.82974638  0.78205072    -0.03600
C475        C  0.20050596  0.83955731  0.78666344    -0.01000
C476        C  0.22757647  0.83845514  0.77900899    -0.23900
C477        C  0.21961732  0.82764705  0.76942739    -0.24100
C478        C  0.18788703  0.82239301  0.77150318    -0.01100
H479        H  0.25123235  0.84421300  0.78061083     0.12700
H480        H  0.23595214  0.82319560  0.76217693     0.12700
N481        N  0.93514024  0.19913813  0.79194977    -0.03600
C482        C  0.91046425  0.18798739  0.79423001    -0.01000
C483        C  0.88604307  0.18976545  0.78542682    -0.23900
C484        C  0.89595239  0.20229942  0.77737894    -0.24100
C485        C  0.92620017  0.20778698  0.78148558    -0.01100
H486        H  0.86307526  0.18293461  0.78508974     0.12700
H487        H  0.88224269  0.20715720  0.76949687     0.12700
N488        N  0.17159931  0.21310817  0.80356072    -0.03600
C489        C  0.19890077  0.20689280  0.80926167    -0.01000
C490        C  0.22566641  0.21686144  0.80640606    -0.23900
C491        C  0.21491756  0.22953312  0.79863604    -0.24100
C492        C  0.18184469  0.22692037  0.79691026    -0.01100
H493        H  0.25057204  0.21487513  0.80946417     0.12700
H494        H  0.22995798  0.23914286  0.79422531     0.12700
N495        N  0.92774739  0.32035197  0.72477455    -0.03600
C496        C  0.90154310  0.32911528  0.72025036    -0.01000
C497        C  0.87470805  0.32673635  0.72784945    -0.23900
C498        C  0.88436004  0.31618205  0.73733668    -0.24100
C499        C  0.91690720  0.31235373  0.73527568    -0.01100
H500        H  0.85045466  0.33193580  0.72648819     0.12700
H501        H  0.86887151  0.31130113  0.74469795     0.12700
N502        N  0.16643399  0.30254284  0.71415652    -0.03600
C503        C  0.19295322  0.30940342  0.70833852    -0.01000
C504        C  0.22054823  0.29984468  0.71081842    -0.23900
C505        C  0.21108735  0.28671401  0.71841488    -0.24100
C506        C  0.17794676  0.28866974  0.72043916    -0.01100
H507        H  0.24508589  0.30232868  0.70755098     0.12700
H508        H  0.22705078  0.27727443  0.72256294     0.12700
In509      In  0.11184792  0.60090535  0.86879748     1.36900
C510        C  0.04809327  0.60595212  0.86313348     0.77400
O511        O  0.13252356  0.57630190  0.86119384    -0.61000
O512        O  0.10358652  0.57537767  0.87757078    -0.51900
C513        C  0.15597059  0.61451353  0.85293155     0.70100
O514        O  0.12718039  0.61077756  0.84979570    -0.46800
C515        C  0.12255608  0.61249789  0.89197358     0.74800
O516        O  0.06409941  0.59313140  0.85960990    -0.58600
O517        O  0.12794776  0.59726924  0.88881899    -0.48700
O518        O  0.06494675  0.61654581  0.86918522    -0.55100
C519        C  0.11991651  0.56717380  0.86960377     0.85000
O520        O  0.16198819  0.61172654  0.86427014    -0.57000
O521        O  0.11250474  0.62185351  0.88318101    -0.60200
In522      In  0.73914012  0.59696815  0.86692158     1.36900
C523        C  0.80156001  0.60542605  0.86195726     0.77400
O524        O  0.73736263  0.61448124  0.88342880    -0.61000
O525        O  0.72943775  0.58815762  0.88669453    -0.51900
C526        C  0.69352806  0.61494456  0.85433315     0.70100
O527        O  0.72106677  0.61123630  0.84978483    -0.46800
C528        C  0.73360256  0.56333395  0.86268855     0.74800
O529        O  0.78381279  0.59758548  0.85421373    -0.58600
O530        O  0.71029635  0.57357889  0.86096275    -0.48700
O531        O  0.78661208  0.60997219  0.87166848    -0.55100
C532        C  0.73162351  0.60293509  0.89131544     0.85000
O533        O  0.68954269  0.60958751  0.86528096    -0.57000
O534        O  0.75922945  0.57027858  0.86671353    -0.60200
In535      In  0.12850239  0.67136778  0.00300037     1.36900
C536        C  0.06446609  0.66661088  0.00515034     0.77400
O537        O  0.11837900  0.67211909  0.98263536    -0.61000
O538        O  0.14965660  0.65242976  0.98922280    -0.51900
C539        C  0.16413435  0.69958133  0.00138167     0.70100
O540        O  0.13345153  0.69980933  0.00261170    -0.46800
C541        C  0.14238282  0.65962263  0.02566194     0.74800
O542        O  0.07702750  0.68133820  0.00533942    -0.58600
O543        O  0.14911094  0.65120307  0.01592398    -0.48700
O544        O  0.08467419  0.65464906  0.00374225    -0.55100
C545        C  0.13482349  0.65898149  0.98002741     0.85000
O546        O  0.17657551  0.68485233  0.00090947    -0.57000
O547        O  0.13093785  0.67426200  0.02362027    -0.60200
In548      In  0.75626868  0.64908669  0.00355609     1.36900
C549        C  0.82130687  0.64935707  0.00616713     0.77400
O550        O  0.72774658  0.65091737  0.02152666    -0.61000
O551        O  0.74967538  0.62733097  0.01741576    -0.51900
C552        C  0.74374492  0.68209789  0.00032393     0.70100
O553        O  0.77058879  0.67526753  0.99730723    -0.46800
C554        C  0.73413123  0.63468654  0.98231941     0.74800
O555        O  0.80230094  0.65716707  0.01342394    -0.58600
O556        O  0.72609073  0.64936869  0.98587337    -0.48700
O557        O  0.80702424  0.64140441  0.99753165    -0.55100
C558        C  0.73414283  0.63611207  0.02525207     0.85000
O559        O  0.72278576  0.67184676  0.00466958    -0.57000
O560        O  0.75126566  0.62672053  0.99013724    -0.60200
In561      In  0.11587318  0.59935145  0.13568371     1.36900
C562        C  0.05160171  0.60340336  0.13922964     0.77400
O563        O  0.12723898  0.62113387  0.12258006    -0.61000
O564        O  0.11922355  0.59656576  0.11488539    -0.51900
C565        C  0.15897855  0.61505353  0.15065980     0.70100
O566        O  0.12886975  0.61837799  0.15060913    -0.46800
C567        C  0.12275139  0.56561390  0.13807983     0.74800
O568        O  0.07141450  0.60145262  0.14811539    -0.58600
O569        O  0.13714583  0.57415640  0.12980590    -0.48700
O570        O  0.06489242  0.60405645  0.12864835    -0.55100
C571        C  0.12588883  0.61201472  0.11285939     0.85000
O572        O  0.16720844  0.60357443  0.14304819    -0.57000
O573        O  0.10585803  0.57443190  0.14545857    -0.60200
In574      In  0.74149878  0.59677849  0.14025246     1.36900
C575        C  0.80570703  0.60173467  0.14443707     0.77400
O576        O  0.72048684  0.57327696  0.14953670    -0.61000
O577        O  0.74728295  0.57026959  0.13278491    -0.51900
C578        C  0.69813551  0.61338780  0.15486763     0.70100
O579        O  0.72565753  0.60844623  0.15873097    -0.46800
C580        C  0.73116233  0.60525942  0.11643651     0.74800
O581        O  0.78975938  0.58984086  0.14940135    -0.58600
O582        O  0.72477175  0.59070099  0.12078129    -0.48700
O583        O  0.78844378  0.61168435  0.13801763    -0.55100
C584        C  0.73137035  0.56314089  0.14138144     0.85000
O585        O  0.69308219  0.61006737  0.14354032    -0.57000
O586        O  0.74178008  0.61574350  0.12442537    -0.60200
In587      In  0.11967832  0.40446798  0.87138805     1.36900
C588        C  0.05482813  0.40339026  0.86690987     0.77400
O589        O  0.10759091  0.38685972  0.88736425    -0.61000
O590        O  0.15012977  0.40195161  0.88896822    -0.51900
C591        C  0.16187382  0.38670836  0.85686457     0.70100
O592        O  0.13810306  0.38018039  0.86257807    -0.46800
C593        C  0.12643132  0.43833484  0.87054368     0.74800
O594        O  0.07528723  0.39651627  0.85965183    -0.58600
O595        O  0.13113194  0.42970418  0.88031229    -0.48700
O596        O  0.06770003  0.41061851  0.87616647    -0.55100
C597        C  0.13182859  0.39097030  0.89396664     0.85000
O598        O  0.16369745  0.40266266  0.85817960    -0.57000
O599        O  0.11990348  0.42950818  0.86098940    -0.60200
In600      In  0.74167873  0.40218101  0.86663316     1.36900
C601        C  0.80701298  0.39908015  0.86453758     0.77400
O602        O  0.75193368  0.42599119  0.85539426    -0.61000
O603        O  0.71730783  0.42751698  0.87000839    -0.51900
C604        C  0.69804007  0.38509617  0.85259283     0.70100
O605        O  0.72636278  0.37952541  0.85482127    -0.46800
C606        C  0.73127293  0.39198880  0.89018563     0.74800
O607        O  0.78806777  0.39635246  0.85543606    -0.58600
O608        O  0.73252707  0.40740001  0.88692211    -0.48700
O609        O  0.79241000  0.40307033  0.87445161    -0.55100
C610        C  0.73257778  0.43529810  0.86153755     0.85000
O611        O  0.69224633  0.39938254  0.85746315    -0.57000
O612        O  0.73436040  0.38158267  0.88127149    -0.60200
In613      In  0.14567954  0.33261716  0.00458606     1.36900
C614        C  0.08128649  0.33646943  0.00395439     0.77400
O615        O  0.14127517  0.32986489  0.02531151    -0.61000
O616        O  0.16356078  0.35243378  0.01847833    -0.51900
C617        C  0.18175056  0.30443079  0.00507933     0.70100
O618        O  0.15120758  0.30428346  0.00341694    -0.46800
C619        C  0.15699290  0.34364103  0.98133837     0.74800
O620        O  0.10074472  0.34889829  0.00347807    -0.58600
O621        O  0.14372385  0.32959233  0.98389165    -0.48700
O622        O  0.09490154  0.32206960  0.00489738    -0.55100
C623        C  0.15369853  0.34413806  0.02789753     0.85000
O624        O  0.19398603  0.31913288  0.00638748    -0.57000
O625        O  0.16660564  0.35191647  0.99082037    -0.60200
In626      In  0.77131435  0.34187648  0.00145685     1.36900
C627        C  0.83599272  0.34462048  0.00006601     0.77400
O628        O  0.73531573  0.34432655  0.98544135    -0.61000
O629        O  0.77437525  0.36177837  0.98626752    -0.51900
C630        C  0.75822394  0.30868197  0.99996090     0.70100
O631        O  0.78639130  0.31493566  0.99898087    -0.46800
C632        C  0.75367969  0.35162857  0.02466526     0.74800
O633        O  0.81861890  0.35579772  0.00538239    -0.58600
O634        O  0.77179888  0.33908918  0.02233961    -0.48700
O635        O  0.82006615  0.33253937  0.99527364    -0.55100
C636        C  0.75031105  0.35631711  0.98015254     0.85000
O637        O  0.73585609  0.31956683  0.00168196    -0.57000
O638        O  0.74380483  0.35929338  0.01501771    -0.60200
In639      In  0.11852029  0.40361759  0.13840689     1.36900
C640        C  0.05313523  0.40130260  0.14086534     0.77400
O641        O  0.12442141  0.42822541  0.14923451    -0.61000
O642        O  0.12870898  0.42880977  0.12954452    -0.51900
C643        C  0.16136767  0.38988686  0.15473910     0.70100
O644        O  0.13355074  0.39526979  0.15787870    -0.46800
C645        C  0.12959090  0.39000365  0.11587263     0.74800
O646        O  0.07214693  0.38942784  0.14412779    -0.58600
O647        O  0.14202840  0.40386391  0.11946063    -0.48700
O648        O  0.06761883  0.41406282  0.13644184    -0.55100
C649        C  0.12831197  0.43718213  0.13957183     0.85000
O650        O  0.16709650  0.39130481  0.14325280    -0.57000
O651        O  0.11192272  0.38280386  0.12397496    -0.60200
In652      In  0.74095468  0.40256336  0.13767748     1.36900
C653        C  0.80601461  0.40032940  0.14151157     0.77400
O654        O  0.73978727  0.40725967  0.11685632    -0.61000
O655        O  0.73495945  0.38187038  0.12316263    -0.51900
C656        C  0.69695620  0.38661766  0.15234070     0.70100
O657        O  0.72715267  0.38671679  0.15469326    -0.46800
C658        C  0.72498483  0.43524341  0.14058395     0.74800
O659        O  0.78865823  0.38766291  0.13864270    -0.58600
O660        O  0.72061021  0.42715435  0.13053105    -0.48700
O661        O  0.78999952  0.41389688  0.14275958    -0.55100
C662        C  0.73611135  0.39181076  0.11392976     0.85000
O663        O  0.68949682  0.39469743  0.14261279    -0.57000
O664        O  0.73657089  0.42638022  0.14938241    -0.60200
In665      In  0.74482211  0.10227295  0.87120163     1.36900
C666        C  0.68052643  0.10906134  0.86880604     0.77400
O667        O  0.74463549  0.07885724  0.85862601    -0.61000
O668        O  0.76869028  0.07724169  0.87601216    -0.51900
C669        C  0.78586631  0.12077400  0.85670191     0.70100
O670        O  0.75808869  0.11582999  0.85318530    -0.46800
C671        C  0.75094408  0.10591291  0.89597382     0.74800
O672        O  0.70057242  0.11991743  0.87287973    -0.58600
O673        O  0.73938237  0.09271785  0.89089779    -0.48700
O674        O  0.69357356  0.09520460  0.86568374    -0.55100
C675        C  0.75934910  0.06949137  0.86635231     0.85000
O676        O  0.79280437  0.11630287  0.86766468    -0.57000
O677        O  0.75892072  0.11746574  0.88835001    -0.60200
In678      In  0.37059897  0.10915757  0.87507982     1.36900
C679        C  0.43448411  0.11557532  0.87176101     0.77400
O680        O  0.34833074  0.12578559  0.88973914    -0.61000
O681        O  0.36970033  0.10255692  0.89564896    -0.51900
C682        C  0.32970435  0.12705274  0.86041825     0.70100
O683        O  0.35389929  0.13358965  0.86589430    -0.46800
C684        C  0.36297439  0.07581282  0.87131361     0.74800
O685        O  0.41575553  0.11103521  0.86302944    -0.58600
O686        O  0.34356961  0.08452056  0.87787838    -0.48700
O687        O  0.42019869  0.11767845  0.88205672    -0.55100
C688        C  0.35499868  0.11605880  0.89873750     0.85000
O689        O  0.32722040  0.11120072  0.86199136    -0.57000
O690        O  0.38586537  0.08427147  0.86648859    -0.60200
In691      In  0.34999157  0.16768285  0.01031098     1.36900
C692        C  0.41439716  0.16497304  0.01097854     0.77400
O693        O  0.34792270  0.16996315  0.03107957    -0.61000
O694        O  0.33397724  0.14633566  0.02296891    -0.51900
C695        C  0.31440793  0.19592276  0.00936410     0.70100
O696        O  0.34521136  0.19598177  0.00900369    -0.46800
C697        C  0.33902382  0.15589006  0.98744145     0.74800
O698        O  0.40013210  0.17923699  0.01107737    -0.58600
O699        O  0.32694756  0.14872976  0.99694199    -0.48700
O700        O  0.39561163  0.15227531  0.01069538    -0.55100
C701        C  0.33908598  0.15475713  0.03283604     0.85000
O702        O  0.30172389  0.18130849  0.01046504    -0.57000
O703        O  0.35574812  0.16895617  0.98977918    -0.60200
In704      In  0.72265925  0.14782724  0.00778976     1.36900
C705        C  0.65780790  0.14927037  0.00761822     0.77400
O706        O  0.75986234  0.14203820  0.99274557    -0.61000
O707        O  0.71541686  0.12828843  0.99275014    -0.51900
C708        C  0.73411072  0.18120177  0.00650849     0.70100
O709        O  0.71158337  0.17482542  0.01298862    -0.46800
C710        C  0.74691619  0.13407172  0.02867813     0.74800
O711        O  0.67504445  0.15436881  0.99862229    -0.58600
O712        O  0.73335779  0.12531028  0.02030829    -0.48700
O713        O  0.67377582  0.14279910  0.01650165    -0.55100
C714        C  0.74205628  0.13122708  0.98728641     0.85000
O715        O  0.75193658  0.17039125  0.00102778    -0.57000
O716        O  0.74985883  0.14959120  0.02598117    -0.60200
In717      In  0.74798640  0.09037564  0.14159282     1.36900
C718        C  0.68506349  0.09889892  0.14530523     0.77400
O719        O  0.77204093  0.10515319  0.12604840    -0.61000
O720        O  0.73987271  0.08496169  0.12137284    -0.51900
C721        C  0.79165882  0.10770587  0.15549726     0.70100
O722        O  0.76484220  0.11391440  0.15190240    -0.46800
C723        C  0.75307605  0.05661099  0.14430055     0.74800
O724        O  0.70297776  0.09310347  0.15392169    -0.58600
O725        O  0.73342803  0.06556407  0.15056134    -0.48700
O726        O  0.69985072  0.10110872  0.13513996    -0.55100
C727        C  0.75837054  0.09664784  0.11752048     0.85000
O728        O  0.79565296  0.09235469  0.15239024    -0.57000
O729        O  0.77126227  0.06505213  0.13712470    -0.60200
In730      In  0.37450738  0.09295101  0.14176041     1.36900
C731        C  0.43861578  0.09838313  0.14602216     0.77400
O732        O  0.35193351  0.06848785  0.14866800    -0.61000
O733        O  0.38571837  0.06696233  0.13377283    -0.51900
C734        C  0.33325905  0.10795447  0.15807449     0.70100
O735        O  0.36215440  0.10384009  0.16083844    -0.46800
C736        C  0.36103462  0.10573914  0.11924072     0.74800
O737        O  0.42139733  0.10771966  0.13910044    -0.58600
O738        O  0.35227556  0.09096528  0.12249093    -0.48700
O739        O  0.42275117  0.08661658  0.15125374    -0.55100
C740        C  0.36698545  0.05902864  0.14108340     0.85000
O741        O  0.32565715  0.10454278  0.14698016    -0.57000
O742        O  0.37628592  0.11387786  0.12755099    -0.60200
In743      In  0.74083843  0.90860437  0.87010610     1.36900
C744        C  0.67522854  0.90781124  0.86841373     0.77400
O745        O  0.73659178  0.88684487  0.88374169    -0.61000
O746        O  0.75727356  0.90997604  0.89012070    -0.51900
C747        C  0.78411644  0.89167011  0.85589985     0.70100
O748        O  0.75436705  0.89305313  0.85300975    -0.46800
C749        C  0.75429206  0.94135041  0.86532604     0.74800
O750        O  0.69335222  0.89734957  0.86272754    -0.58600
O751        O  0.76239499  0.93390844  0.87526482    -0.48700
O752        O  0.69070716  0.91842925  0.87498065    -0.55100
C753        C  0.74896379  0.89495104  0.89274572     0.85000
O754        O  0.79164739  0.89919207  0.86585807    -0.57000
O755        O  0.73980227  0.93189710  0.85756008    -0.60200
In756      In  0.36242516  0.91365116  0.87062210     1.36900
C757        C  0.42766219  0.91131549  0.86791598     0.77400
O758        O  0.36494846  0.93827987  0.85968579    -0.61000
O759        O  0.35227537  0.93936722  0.87883812    -0.51900
C760        C  0.31940260  0.89783079  0.85540679     0.70100
O761        O  0.34602426  0.89123225  0.85881760    -0.46800
C762        C  0.34742875  0.89991874  0.89280445     0.74800
O763        O  0.40828058  0.90838644  0.85899140    -0.58600
O764        O  0.33490630  0.91359067  0.88888860    -0.48700
O765        O  0.41354897  0.91543571  0.87790521    -0.55100
C766        C  0.35754078  0.94752345  0.86891536     0.85000
O767        O  0.31480180  0.91256082  0.85973937    -0.57000
O768        O  0.36706900  0.89308502  0.88524075    -0.60200
In769      In  0.33131330  0.83639739  0.00118704     1.36900
C770        C  0.39594676  0.83932335  0.00161501     0.77400
O771        O  0.33011346  0.83530862  0.98042547    -0.61000
O772        O  0.31519733  0.85844975  0.98897150    -0.51900
C773        C  0.29636635  0.80806457  0.99945137     0.70100
O774        O  0.32714476  0.80809914  0.00016683    -0.46800
C775        C  0.31880686  0.84606350  0.02460386     0.74800
O776        O  0.37693266  0.85192784  0.00198798    -0.58600
O777        O  0.30916122  0.85466867  0.01532815    -0.48700
O778        O  0.38183715  0.82507895  0.00077282    -0.55100
C779        C  0.32062524  0.85044493  0.97893543     0.85000
O780        O  0.28330218  0.82268851  0.99964301    -0.57000
O781        O  0.33297199  0.83235399  0.02176581    -0.60200
In782      In  0.70331260  0.84366084  0.00337185     1.36900
C783        C  0.64001931  0.84787088  0.00712263     0.77400
O784        O  0.73630504  0.84366500  0.02021655    -0.61000
O785        O  0.70608912  0.86515094  0.01742637    -0.51900
C786        C  0.71291473  0.81003278  0.00139237     0.70100
O787        O  0.68513702  0.81687751  0.00118715    -0.46800
C788        C  0.72074457  0.85504649  0.98076265     0.74800
O789        O  0.65634349  0.83618157  0.01230684    -0.58600
O790        O  0.73892843  0.85695592  0.99017076    -0.48700
O791        O  0.65661271  0.85805871  0.00055583    -0.55100
C792        C  0.72601763  0.85762471  0.02448434     0.85000
O793        O  0.73620250  0.82044039  0.00262533    -0.57000
O794        O  0.69434814  0.84757236  0.98306667    -0.60200
In795      In  0.73439693  0.89452675  0.13938997     1.36900
C796        C  0.66964869  0.88872571  0.14194297     0.77400
O797        O  0.72770561  0.91907653  0.15022883    -0.61000
O798        O  0.75332059  0.91979908  0.13305003    -0.51900
C799        C  0.77963329  0.87797711  0.15321651     0.70100
O800        O  0.75136764  0.87223280  0.15123238    -0.46800
C801        C  0.74418149  0.88681567  0.11544718     0.74800
O802        O  0.68661264  0.89516746  0.15057794    -0.58600
O803        O  0.73725875  0.90159376  0.11924367    -0.48700
O804        O  0.68599759  0.88480383  0.13246271    -0.55100
C805        C  0.74241042  0.92807080  0.14222586     0.85000
O806        O  0.78459486  0.89229339  0.14831288    -0.57000
O807        O  0.74719522  0.87586165  0.12401977    -0.60200
In808      In  0.35759859  0.89686781  0.13641700     1.36900
C809        C  0.42231534  0.89048451  0.13835818     0.77400
O810        O  0.35306799  0.90094568  0.11578669    -0.61000
O811        O  0.33721478  0.87721866  0.12303153    -0.51900
C812        C  0.31602808  0.88164642  0.15251090     0.70100
O813        O  0.34339505  0.87541234  0.14959630    -0.46800
C814        C  0.35158171  0.93078409  0.13864639     0.74800
O815        O  0.40466256  0.89427102  0.14757658    -0.58600
O816        O  0.33867377  0.92239308  0.12992956    -0.48700
O817        O  0.40679452  0.88959219  0.12825463    -0.55100
C818        C  0.34115968  0.88646616  0.11349261     0.85000
O819        O  0.30989089  0.89557697  0.14714279    -0.57000
O820        O  0.36674813  0.92176273  0.14647410    -0.60200
N821        N  0.30716757  0.81095154  0.72282073    -0.03600
C822        C  0.28200134  0.82034615  0.71815340    -0.01000
C823        C  0.25359331  0.81713929  0.72467853    -0.23900
C824        C  0.26113246  0.80532239  0.73361305    -0.24100
C825        C  0.29397325  0.80161084  0.73227633    -0.01100
H826        H  0.22967798  0.82247700  0.72286689     0.12700
H827        H  0.24411170  0.79945661  0.74001719     0.12700
N828        N  0.54743663  0.80230143  0.71394149    -0.03600
C829        C  0.57307759  0.80738630  0.70675011    -0.01000
C830        C  0.60025758  0.79753173  0.70926398    -0.23900
C831        C  0.59121930  0.78586417  0.71811816    -0.24100
C832        C  0.55873805  0.78893863  0.72079872    -0.01100
H833        H  0.62432888  0.79890671  0.70520621     0.12700
H834        H  0.60683368  0.77632573  0.72232908     0.12700
N835        N  0.54075202  0.70570807  0.80071060    -0.03600
C836        C  0.56615017  0.69899939  0.80729533    -0.01000
C837        C  0.59357629  0.70909311  0.80607472    -0.23900
C838        C  0.58512954  0.72243725  0.79848674    -0.24100
C839        C  0.55275969  0.72008158  0.79524832    -0.01100
H840        H  0.61749054  0.70671703  0.81004180     0.12700
H841        H  0.60131278  0.73237309  0.79519876     0.12700
N842        N  0.30603782  0.68365005  0.78493565    -0.03600
C843        C  0.28383304  0.67104422  0.78694063    -0.01000
C844        C  0.26049017  0.67103947  0.77761403    -0.23900
C845        C  0.26854618  0.68386260  0.76952705    -0.24100
C846        C  0.29667209  0.69136711  0.77410871    -0.01100
H847        H  0.23925905  0.66287094  0.77695780     0.12700
H848        H  0.25483462  0.68755906  0.76132277     0.12700
C849        C  0.46424391  0.67922205  0.79840223    -0.11000
C850        C  0.43977014  0.69177023  0.79967694     0.06200
C851        C  0.44940401  0.70864348  0.80212412    -0.09700
C852        C  0.48245131  0.71296773  0.80280795    -0.11400
C853        C  0.50684487  0.70061106  0.80099734    -0.01200
C854        C  0.49744750  0.68360803  0.79904370    -0.10300
C855        C  0.40463206  0.68779109  0.79726924     0.06200
H856        H  0.43145287  0.71870463  0.80298342     0.08100
H857        H  0.48905623  0.72612570  0.80450769     0.11600
H858        H  0.51565798  0.67384324  0.79754325     0.11800
H859        H  0.45774393  0.66606332  0.79664276     0.08100
C860        C  0.39598427  0.67671086  0.78748339    -0.11000
C861        C  0.36338230  0.67491500  0.78385760    -0.10300
C862        C  0.33864478  0.68404073  0.78993181    -0.01200
C863        C  0.34670410  0.69437953  0.80015291    -0.11400
C864        C  0.37944273  0.69626158  0.80379155    -0.09800
H865        H  0.41455751  0.67013604  0.78214012     0.08100
H866        H  0.35742354  0.66689386  0.77594393     0.11800
H867        H  0.32785206  0.70150444  0.80495753     0.11600
H868        H  0.38513174  0.70469817  0.81149791     0.08100
C869        C  0.53578085  0.75181307  0.74111919    -0.11000
C870        C  0.52413150  0.75996543  0.75193970     0.06200
C871        C  0.51833421  0.77769705  0.75142978    -0.09700
C872        C  0.52659312  0.78716567  0.74075310    -0.11400
C873        C  0.54077211  0.77905349  0.73040431    -0.01200
C874        C  0.54405156  0.76124904  0.73053484    -0.10300
C875        C  0.52307226  0.75037421  0.76401550     0.06200
H876        H  0.50897417  0.78440540  0.75951138     0.08100
H877        H  0.52425923  0.80089788  0.74096309     0.11600
H878        H  0.55517005  0.75472194  0.72269295     0.11800
H879        H  0.54105956  0.73830014  0.74111060     0.08100
C880        C  0.51566924  0.73280725  0.76434158    -0.11000
C881        C  0.52241120  0.72302804  0.77500251    -0.10300
C882        C  0.53660372  0.73064342  0.78554379    -0.01200
C883        C  0.54120072  0.74837199  0.78563622    -0.11400
C884        C  0.53443717  0.75814041  0.77503715    -0.09800
H885        H  0.50632331  0.72641725  0.75612149     0.08100
H886        H  0.51889252  0.70935851  0.77465320     0.11800
H887        H  0.55216020  0.75452815  0.79367137     0.11600
H888        H  0.54072419  0.77152845  0.77520358     0.08100
C889        C  0.39712542  0.81719391  0.72800844    -0.11000
C890        C  0.40975777  0.81511709  0.71591715     0.06200
C891        C  0.38777917  0.81271485  0.70595757    -0.09700
C892        C  0.35401257  0.81179036  0.70811247    -0.11400
C893        C  0.34160336  0.81305299  0.72028431    -0.01200
C894        C  0.36346774  0.81605710  0.73016582    -0.10300
C895        C  0.44566743  0.81343401  0.71399299     0.06200
H896        H  0.39684604  0.81110689  0.69653663     0.08100
H897        H  0.33779254  0.80938691  0.70035344     0.11600
H898        H  0.35441202  0.81725697  0.73961954     0.11800
H899        H  0.41340773  0.81888964  0.73588011     0.08100
C900        C  0.46794588  0.82482106  0.71957890    -0.11000
C901        C  0.50175058  0.82178062  0.71891445    -0.10300
C902        C  0.51368102  0.80721004  0.71284005    -0.01200
C903        C  0.49157243  0.79612730  0.70700085    -0.11400
C904        C  0.45796972  0.79928351  0.70746120    -0.09800
H905        H  0.45915042  0.83580421  0.72469307     0.08100
H906        H  0.51851260  0.83031780  0.72361984     0.11800
H907        H  0.50039648  0.78468581  0.70246780     0.11600
H908        H  0.44146140  0.79014468  0.70325636     0.08100
C909        C  0.33355494  0.75888485  0.73861034    -0.11000
C910        C  0.32318488  0.75581590  0.75095422     0.06200
C911        C  0.30782927  0.76913141  0.75750229    -0.09700
C912        C  0.30110493  0.78463532  0.75166407    -0.11400
C913        C  0.30952663  0.78730803  0.73912588    -0.01200
C914        C  0.32686058  0.77452898  0.73275571    -0.10300
C915        C  0.32435254  0.73840264  0.75658010     0.06200
H916        H  0.29891624  0.76722023  0.76689886     0.08100
H917        H  0.28746065  0.79422421  0.75675043     0.11600
H918        H  0.33311664  0.77614555  0.72301575     0.11800
H919        H  0.34561946  0.74895282  0.73331462     0.08100
C920        C  0.31625689  0.72404619  0.74936175    -0.11000
C921        C  0.31024490  0.70831821  0.75505522    -0.10300
C922        C  0.31185199  0.70654118  0.76810550    -0.01200
C923        C  0.32243309  0.72050391  0.77523256    -0.11400
C924        C  0.32888022  0.73622340  0.76952066    -0.09800
H925        H  0.31222112  0.72519331  0.73940902     0.08100
H926        H  0.30234886  0.69775257  0.74928964     0.11800
H927        H  0.32327347  0.71974886  0.78529231     0.11600
H928        H  0.33560628  0.74694174  0.77534227     0.08100
C929        C  0.58313590  0.87811400  0.13191531    -0.11000
C930        C  0.56411261  0.88466933  0.14176376     0.06200
C931        C  0.58065330  0.89154585  0.15219242    -0.09700
C932        C  0.61494810  0.89235429  0.15253202    -0.11400
C933        C  0.63359511  0.88643301  0.14242339    -0.01200
C934        C  0.61725726  0.87909253  0.13221041    -0.10300
C935        C  0.52742202  0.88500202  0.14088281     0.06200
H936        H  0.56719708  0.89692531  0.15993437     0.08100
H937        H  0.62680980  0.89809837  0.16053168     0.11600
H938        H  0.63088874  0.87429870  0.12429004     0.11800
H939        H  0.57175840  0.87225566  0.12387089     0.08100
C940        C  0.51165198  0.88659732  0.12922178    -0.11000
C941        C  0.47755445  0.88780338  0.12840309    -0.10300
C942        C  0.45819276  0.88778994  0.13921613    -0.01200
C943        C  0.47361434  0.88588158  0.15083857    -0.11400
C944        C  0.50770850  0.88434377  0.15165997    -0.09800
H945        H  0.52558789  0.88749744  0.12067637     0.08100
H946        H  0.46640856  0.88931828  0.11930276     0.11800
H947        H  0.45929320  0.88565525  0.15932795     0.11600
H948        H  0.51853228  0.88269397  0.16078801     0.08100
C949        C  0.76173439  0.85909513  0.05703726    -0.11000
C950        C  0.74325658  0.87214665  0.06258229     0.06200
C951        C  0.72126411  0.88145287  0.05514099    -0.09700
C952        C  0.71694057  0.87734349  0.04253736    -0.11400
C953        C  0.73453245  0.86385495  0.03711707    -0.01200
C954        C  0.75749080  0.85502215  0.04442325    -0.10300
C955        C  0.74599613  0.87572563  0.07615602     0.06200
H956        H  0.70649948  0.89148654  0.05919431     0.08100
H957        H  0.69881800  0.88425849  0.03717467     0.11600
H958        H  0.77138536  0.84457243  0.04049087     0.11800
H959        H  0.77916326  0.85187795  0.06251966     0.08100
C960        C  0.74558325  0.86236105  0.08491548    -0.11000
C961        C  0.74606948  0.86586800  0.09774020    -0.10300
C962        C  0.74698234  0.88279169  0.10201394    -0.01200
C963        C  0.74824638  0.89609339  0.09325509    -0.11400
C964        C  0.74774420  0.89259596  0.08047496    -0.09800
H965        H  0.74385933  0.84923544  0.08184027     0.08100
H966        H  0.74473539  0.85538648  0.10429961     0.11800
H967        H  0.74907738  0.90925020  0.09629153     0.11600
H968        H  0.74846678  0.90312510  0.07393563     0.08100
C969        C  0.48589767  0.82873612  0.00355804    -0.11000
C970        C  0.49975464  0.84499393  0.00517734     0.06200
C971        C  0.47926818  0.85934843  0.00521167    -0.09700
C972        C  0.44555674  0.85746967  0.00385132    -0.11400
C973        C  0.43168997  0.84121279  0.00240809    -0.01200
C974        C  0.45215446  0.82686052  0.00217557    -0.10300
C975        C  0.53551317  0.84693044  0.00669795     0.06200
H976        H  0.48926660  0.87200253  0.00651675     0.08100
H977        H  0.43028702  0.86874872  0.00409074     0.11600
H978        H  0.44207050  0.81419286  0.00102832     0.11800
H979        H  0.50120720  0.81747639  0.00327206     0.08100
C980        C  0.55308754  0.83554725  0.01426426    -0.11000
C981        C  0.58707762  0.83645930  0.01491834    -0.10300
C982        C  0.60414668  0.84875185  0.00799735    -0.01200
C983        C  0.58653912  0.86066070  0.00089438    -0.11400
C984        C  0.55248985  0.85977077  0.00026117    -0.09800
H985        H  0.54054899  0.82574482  0.01951903     0.08100
H986        H  0.60006208  0.82715902  0.02050146     0.11800
H987        H  0.59914769  0.87023084  0.99543205     0.11600
H988        H  0.53954754  0.86867754  0.99432147     0.08100
C989        C  0.32749877  0.84659472  0.05971514    -0.11000
C990        C  0.31795734  0.86329499  0.06279979     0.06200
C991        C  0.30628931  0.87397648  0.05320402    -0.09700
C992        C  0.30515339  0.86822531  0.04080346    -0.11400
C993        C  0.31571396  0.85169874  0.03775348    -0.01200
C994        C  0.32633414  0.84088002  0.04737884    -0.10300
C995        C  0.32167937  0.86961984  0.07587212     0.06200
H996        H  0.29832148  0.88683763  0.05525807     0.08100
H997        H  0.29693116  0.87685789  0.03356906     0.11600
H998        H  0.33476673  0.82809162  0.04532773     0.11800
H999        H  0.33709333  0.83808206  0.06676531     0.08100
C1000       C  0.31611788  0.85872079  0.08609579    -0.11000
C1001       C  0.32190766  0.86425035  0.09832584    -0.10300
C1002       C  0.33330769  0.88082309  0.10063602    -0.01200
C1003       C  0.33820724  0.89186522  0.09047991    -0.11400
C1004       C  0.33247757  0.88633549  0.07824896    -0.09800
H1005       H  0.30734943  0.84585185  0.08465182     0.08100
H1006       H  0.31784036  0.85547974  0.10596380     0.11800
H1007       H  0.34704547  0.90471611  0.09196899     0.11600
H1008       H  0.33750805  0.89501125  0.07063472     0.08100
C1009       C  0.34702236  0.87010108  0.92064731    -0.11000
C1010       C  0.32744557  0.87900378  0.92927828     0.06200
C1011       C  0.31411266  0.89479118  0.92567922    -0.09700
C1012       C  0.32033552  0.90151963  0.91380082    -0.11400
C1013       C  0.34006736  0.89262784  0.90525456    -0.01200
C1014       C  0.35326005  0.87683659  0.90880174    -0.10300
C1015       C  0.32188428  0.87196484  0.94204563     0.06200
H1016       H  0.29867537  0.90191889  0.93201437     0.08100
H1017       H  0.30987344  0.91373443  0.91133397     0.11600
H1018       H  0.36867209  0.86971971  0.90244256     0.11800
H1019       H  0.35822193  0.85807328  0.92313715     0.08100
C1020       C  0.31859963  0.85428965  0.94383921    -0.11000
C1021       C  0.31680157  0.84744061  0.95584408    -0.10300
C1022       C  0.31779214  0.85808485  0.96637458    -0.01200
C1023       C  0.31928193  0.87580633  0.96465838    -0.11400
C1024       C  0.32145551  0.88268932  0.95260973    -0.09800
H1025       H  0.31798443  0.84566743  0.93594456     0.08100
H1026       H  0.31537604  0.83372775  0.95690061     0.11800
H1027       H  0.32033425  0.88429068  0.97263984     0.11600
H1028       H  0.32421042  0.89633759  0.95160739     0.08100
C1029       C  0.58759829  0.89533769  0.86025989    -0.11000
C1030       C  0.56963153  0.90828402  0.86623887     0.06200
C1031       C  0.58680608  0.92110200  0.87266060    -0.09700
C1032       C  0.62092165  0.92089329  0.87328278    -0.11400
C1033       C  0.63894788  0.90785643  0.86749906    -0.01200
C1034       C  0.62193148  0.89510091  0.86091503    -0.10300
C1035       C  0.53314725  0.90828038  0.86636941     0.06200
H1036       H  0.57374699  0.93136989  0.87723215     0.08100
H1037       H  0.63322370  0.93098237  0.87834045     0.11600
H1038       H  0.63514973  0.88487063  0.85636821     0.11800
H1039       H  0.57506300  0.88520513  0.85533220     0.08100
C1040       C  0.51456343  0.90555795  0.85547148    -0.11000
C1041       C  0.48018845  0.90649416  0.85581883    -0.10300
C1042       C  0.46386757  0.91003446  0.86709299    -0.01200
C1043       C  0.48256775  0.91242324  0.87794709    -0.11400
C1044       C  0.51660693  0.91155575  0.87759263    -0.09800
H1045       H  0.52663533  0.90308496  0.84666458     0.08100
H1046       H  0.46644471  0.90458761  0.84729370     0.11800
H1047       H  0.47084987  0.91502032  0.88680214     0.11600
H1048       H  0.53010085  0.91343284  0.88617921     0.08100
C1049       C  0.76428918  0.89151589  0.92752008    -0.11000
C1050       C  0.74992920  0.87569023  0.93020262     0.06200
C1051       C  0.73875770  0.86547128  0.92030646    -0.09700
C1052       C  0.74002856  0.87139293  0.90803147    -0.11400
C1053       C  0.75223228  0.88771637  0.90542118    -0.01200
C1054       C  0.76533481  0.89751294  0.91522067    -0.10300
C1055       C  0.74330606  0.87056545  0.94326156     0.06200
H1056       H  0.72798844  0.85311472  0.92214009     0.08100
H1057       H  0.73014318  0.86348146  0.90064621     0.11600
H1058       H  0.77516480  0.91009925  0.91344658     0.11800
H1059       H  0.77302016  0.89962938  0.93499609     0.08100
C1060       C  0.76767025  0.87115623  0.95250948    -0.11000
C1061       C  0.76055024  0.86626086  0.96481385    -0.10300
C1062       C  0.72893082  0.86083789  0.96801487    -0.01200
C1063       C  0.70461093  0.86053436  0.95876698    -0.11400
C1064       C  0.71171352  0.86533601  0.94655508    -0.09800
H1065       H  0.79221753  0.87517002  0.95017168     0.08100
H1066       H  0.77974154  0.86653706  0.97176324     0.11800
H1067       H  0.67995849  0.85656311  0.96096717     0.11600
H1068       H  0.69233843  0.86510684  0.93966491     0.08100
C1069       C  0.36017794  0.97598542  0.15073670    -0.11000
C1070       C  0.35223450  0.98560693  0.14011528     0.06200
C1071       C  0.34226676  0.97710662  0.12922047    -0.09700
C1072       C  0.34081754  0.95927275  0.12889452    -0.11400
C1073       C  0.35000814  0.94961641  0.13937749    -0.01200
C1074       C  0.35939176  0.95815072  0.15033374    -0.10300
C1075       C  0.35554883  0.00442448  0.14028210     0.06200
H1076       H  0.33581241  0.98428821  0.12094523     0.08100
H1077       H  0.33349004  0.95302547  0.12032007     0.11600
H1078       H  0.36652681  0.95102263  0.15854594     0.11800
H1079       H  0.36801549  0.98227702  0.15922565     0.08100
C1080       C  0.34009113  0.01419461  0.14954050    -0.11000
C1081       C  0.34360371  0.03195253  0.14974699    -0.10300
C1082       C  0.36305181  0.04024816  0.14080817    -0.01200
C1083       C  0.37878859  0.03042036  0.13162927    -0.11400
C1084       C  0.37487156  0.01269527  0.13131669    -0.09800
H1085       H  0.32505941  0.00807361  0.15654447     0.08100
H1086       H  0.33122783  0.03919149  0.15694407     0.11800
H1087       H  0.39405743  0.03644511  0.12466201     0.11600
H1088       H  0.38733960  0.00538240  0.12417810     0.08100
C1089       C  0.59902354  0.10012988  0.15873027    -0.11000
C1090       C  0.58020191  0.10416949  0.14811829     0.06200
C1091       C  0.59665000  0.10779867  0.13690251    -0.09700
C1092       C  0.63074625  0.10675753  0.13618574    -0.11400
C1093       C  0.64940004  0.10202393  0.14664558    -0.01200
C1094       C  0.63321970  0.09904978  0.15799746    -0.10300
C1095       C  0.54364106  0.10362876  0.14846819     0.06200
H1096       H  0.58311427  0.11075275  0.12849989     0.08100
H1097       H  0.64242658  0.10908291  0.12728582     0.11600
H1098       H  0.64691361  0.09545179  0.16623092     0.11800
H1099       H  0.58727742  0.09754974  0.16757397     0.08100
C1100       C  0.52721924  0.09083454  0.15521634    -0.11000
C1101       C  0.49308612  0.08939498  0.15470241    -0.10300
C1102       C  0.47447368  0.10072560  0.14744894    -0.01200
C1103       C  0.49071582  0.11379385  0.14097132    -0.11400
C1104       C  0.52482364  0.11523927  0.14147843    -0.09800
H1105       H  0.54082812  0.08151291  0.16055091     0.08100
H1106       H  0.48132519  0.07913818  0.15974480     0.11800
H1107       H  0.47707983  0.12274831  0.13530358     0.11600
H1108       H  0.53649126  0.12539147  0.13629905     0.08100
C1109       C  0.77839047  0.01064013  0.13914398    -0.11000
C1110       C  0.75268539  0.00170626  0.14490926     0.06200
C1111       C  0.72777524  0.01108372  0.15079748    -0.09700
C1112       C  0.72841363  0.02890648  0.15085681    -0.11400
C1113       C  0.75382120  0.03778298  0.14495083    -0.01200
C1114       C  0.77886165  0.02848950  0.13911212    -0.10300
C1115       C  0.75126665  0.98272753  0.14448518     0.06200
H1116       H  0.70729553  0.00465914  0.15510799     0.08100
H1117       H  0.70856297  0.03575292  0.15527556     0.11600
H1118       H  0.79872682  0.03501707  0.13447213     0.11800
H1119       H  0.79819200  0.00383852  0.13466194     0.08100
C1120       C  0.76071762  0.97387675  0.13365859    -0.11000
C1121       C  0.75829763  0.95612220  0.13305987    -0.10300
C1122       C  0.74616330  0.94678091  0.14323094    -0.01200
C1123       C  0.73700099  0.95552856  0.15410904    -0.11400
C1124       C  0.73962362  0.97331533  0.15474736    -0.09800
H1125       H  0.76926017  0.98069304  0.12551390     0.08100
H1126       H  0.76536958  0.94972627  0.12451849     0.11800
H1127       H  0.72772560  0.94863342  0.16210592     0.11600
H1128       H  0.73260086  0.97969232  0.16329138     0.08100
C1129       C  0.77161513  0.13200272  0.06258318    -0.11000
C1130       C  0.76640251  0.11471631  0.06540368     0.06200
C1131       C  0.75781956  0.10351612  0.05566270    -0.09700
C1132       C  0.75278910  0.10965429  0.04356047    -0.11400
C1133       C  0.75662340  0.12706346  0.04092200    -0.01200
C1134       C  0.76687910  0.13809243  0.05047557    -0.10300
C1135       C  0.76694212  0.10880631  0.07859244     0.06200
H1136       H  0.75419594  0.09007215  0.05745318     0.08100
H1137       H  0.74495267  0.10086127  0.03635412     0.11600
H1138       H  0.76982648  0.15159178  0.04872217     0.11800
H1139       H  0.77774455  0.14105668  0.06985481     0.08100
C1140       C  0.78896141  0.11581554  0.08730048    -0.11000
C1141       C  0.78668383  0.11165595  0.09996647    -0.10300
C1142       C  0.76264069  0.10026617  0.10412717    -0.01200
C1143       C  0.74153196  0.09274565  0.09539850    -0.11400
C1144       C  0.74353332  0.09703341  0.08279655    -0.09800
H1145       H  0.80761971  0.12470739  0.08435591     0.08100
H1146       H  0.80344928  0.11751057  0.10652350     0.11800
H1147       H  0.72268710  0.08396943  0.09836973     0.11600
H1148       H  0.72576704  0.09162107  0.07643722     0.08100
C1149       C  0.50431391  0.17505969  0.00810924    -0.11000
C1150       C  0.51828733  0.15884910  0.00979872     0.06200
C1151       C  0.49787574  0.14484844  0.01214255    -0.09700
C1152       C  0.46411743  0.14694667  0.01267877    -0.11400
C1153       C  0.45012380  0.16310754  0.01095325    -0.01200
C1154       C  0.47045310  0.17718926  0.00876302    -0.10300
C1155       C  0.55405685  0.15643311  0.00917661     0.06200
H1156       H  0.50802725  0.13219909  0.01335390     0.08100
H1157       H  0.44893535  0.13588416  0.01437270     0.11600
H1158       H  0.46015782  0.18977694  0.00737617     0.11800
H1159       H  0.51959198  0.18606986  0.00640100     0.08100
C1160       C  0.57241295  0.16395845  0.99958596    -0.11000
C1161       C  0.60613121  0.16134122  0.99893200    -0.10300
C1162       C  0.62205021  0.15129673  0.00792254    -0.01200
C1163       C  0.60371273  0.14384251  0.01752916    -0.11400
C1164       C  0.57000525  0.14632787  0.01811723    -0.09800
H1165       H  0.56062621  0.17167980  0.99252319     0.08100
H1166       H  0.61979508  0.16733120  0.99148006     0.11800
H1167       H  0.61544939  0.13614419  0.02461991     0.11600
H1168       H  0.55641793  0.14053277  0.02567758     0.08100
C1169       C  0.34129087  0.12292317  0.05933795    -0.11000
C1170       C  0.33940061  0.13367335  0.06984181     0.06200
C1171       C  0.33506469  0.15127664  0.06796006    -0.09700
C1172       C  0.33394617  0.15804486  0.05590792    -0.11400
C1173       C  0.33662208  0.14734230  0.04545789    -0.01200
C1174       C  0.33975879  0.12969538  0.04726494    -0.10300
C1175       C  0.34362286  0.12669293  0.08266616     0.06200
H1176       H  0.33293090  0.15988606  0.07582750     0.08100
H1177       H  0.33143737  0.17169491  0.05475485     0.11600
H1178       H  0.34235923  0.12119850  0.03934688     0.11800
H1179       H  0.34513654  0.10936151  0.06043815     0.08100
C1180       C  0.33039797  0.11078363  0.08600479    -0.11000
C1181       C  0.33577565  0.10397900  0.09791501    -0.10300
C1182       C  0.35442026  0.11297724  0.10674119    -0.01200
C1183       C  0.36725710  0.12895453  0.10347477    -0.11400
C1184       C  0.36197972  0.13572395  0.09158847    -0.09800
H1185       H  0.31580037  0.10359136  0.07940681     0.08100
H1186       H  0.32547002  0.09167139  0.10020334     0.11800
H1187       H  0.38185157  0.13615754  0.11006947     0.11600
H1188       H  0.37300034  0.14785827  0.08928997     0.08100
C1189       C  0.36309636  0.99306973  0.85714722    -0.11000
C1190       C  0.35454160  0.00238766  0.86788184     0.06200
C1191       C  0.34606076  0.99346437  0.87877074    -0.09700
C1192       C  0.34663618  0.97566623  0.87899931    -0.11400
C1193       C  0.35560655  0.96634889  0.86833987    -0.01200
C1194       C  0.36353797  0.97521005  0.85736317    -0.10300
C1195       C  0.35547878  0.02132622  0.86795086     0.06200
H1196       H  0.33979909  0.00026416  0.88723840     0.08100
H1197       H  0.34046145  0.96919023  0.88760368     0.11600
H1198       H  0.37047276  0.96834546  0.84900246     0.11800
H1199       H  0.36943878  0.99960566  0.84858362     0.08100
C1200       C  0.38159986  0.03011600  0.86238761    -0.11000
C1201       C  0.38366531  0.04787941  0.86323912    -0.10300
C1202       C  0.35965317  0.05719857  0.86966229    -0.01200
C1203       C  0.33312428  0.04848211  0.87494566    -0.11400
C1204       C  0.33105979  0.03073358  0.87409943    -0.09800
H1205       H  0.40097702  0.02321270  0.85771946     0.08100
H1206       H  0.40445447  0.05428475  0.85911011     0.11800
H1207       H  0.31419687  0.05536235  0.87989482     0.11600
H1208       H  0.31041882  0.02433560  0.87833515     0.08100
C1209       C  0.34855295  0.11451035  0.93405933    -0.11000
C1210       C  0.33632539  0.13089606  0.93671699     0.06200
C1211       C  0.32808124  0.14167073  0.92671942    -0.09700
C1212       C  0.33339276  0.13657083  0.91442361    -0.11400
C1213       C  0.34694226  0.12054167  0.91177664    -0.01200
C1214       C  0.35383842  0.10937900  0.92168782    -0.10300
C1215       C  0.33442059  0.13733220  0.94976421     0.06200
H1216       H  0.31794247  0.15421180  0.92840056     0.08100
H1217       H  0.32756211  0.14539619  0.90697162     0.11600
H1218       H  0.36412148  0.09688721  0.91989138     0.11800
H1219       H  0.35533599  0.10592717  0.94154039     0.08100
C1220       C  0.32501591  0.12669076  0.95971419    -0.11000
C1221       C  0.32520424  0.13281285  0.97202098    -0.10300
C1222       C  0.33507788  0.14960315  0.97455308    -0.01200
C1223       C  0.34365553  0.16030468  0.96460242    -0.11400
C1224       C  0.34336071  0.15426054  0.95238502    -0.09800
H1225       H  0.31770726  0.11363920  0.95799264     0.08100
H1226       H  0.31858665  0.12430587  0.97955943     0.11800
H1227       H  0.35135059  0.17331125  0.96628448     0.11600
H1228       H  0.35129406  0.16274877  0.94502587     0.08100
C1229       C  0.59617698  0.12906961  0.87211485    -0.11000
C1230       C  0.57579016  0.11581868  0.86786291     0.06200
C1231       C  0.59038873  0.10070678  0.86352309    -0.09700
C1232       C  0.62434096  0.09876113  0.86361572    -0.11400
C1233       C  0.64469948  0.11186926  0.86803225    -0.01200
C1234       C  0.63028706  0.12713002  0.87216952    -0.10300
C1235       C  0.53944977  0.11733460  0.86834523     0.06200
H1236       H  0.57548265  0.09014363  0.86036982     0.08100
H1237       H  0.63465310  0.08680595  0.86042295     0.11600
H1238       H  0.64534817  0.13745978  0.87562369     0.11800
H1239       H  0.58572387  0.14092797  0.87541579     0.08100
C1240       C  0.52383206  0.12442571  0.87883174    -0.11000
C1241       C  0.48966492  0.12435275  0.87978872    -0.10300
C1242       C  0.47034026  0.11737411  0.87021794    -0.01200
C1243       C  0.48585272  0.11090656  0.85952496    -0.11400
C1244       C  0.51998104  0.11081402  0.85862273    -0.09800
H1245       H  0.53805260  0.12941516  0.88652814     0.08100
H1246       H  0.47839511  0.12940150  0.88814906     0.11800
H1247       H  0.47162992  0.10540194  0.85201159     0.11600
H1248       H  0.53118076  0.10544953  0.85035331     0.08100
C1249       C  0.76161436  0.02501263  0.85199429    -0.11000
C1250       C  0.76694789  0.01476331  0.86260936     0.06200
C1251       C  0.77081540  0.02289605  0.87423314    -0.09700
C1252       C  0.76940554  0.04063191  0.87525329    -0.11400
C1253       C  0.76357793  0.05082526  0.86473612    -0.01200
C1254       C  0.75967920  0.04285908  0.85306899    -0.10300
C1255       C  0.76690184  0.99569250  0.86190424     0.06200
H1256       H  0.77394671  0.01554578  0.88268568     0.08100
H1257       H  0.77182001  0.04635742  0.88441177     0.11600
H1258       H  0.75499379  0.05041578  0.84480468     0.11800
H1259       H  0.75878127  0.01926138  0.84287532     0.08100
C1260       C  0.74544990  0.98691762  0.85385777    -0.11000
C1261       C  0.74239874  0.96910955  0.85451476    -0.10300
C1262       C  0.76046466  0.95974691  0.86330462    -0.01200
C1263       C  0.78305537  0.96835971  0.87087274    -0.11400
C1264       C  0.78650889  0.98605259  0.87008299    -0.09800
H1265       H  0.72981955  0.99384059  0.84748492     0.08100
H1266       H  0.72477549  0.96276891  0.84856811     0.11800
H1267       H  0.79764663  0.96143814  0.87761089     0.11600
H1268       H  0.80404636  0.99222583  0.87614578     0.08100
C1269       C  0.76945146  0.12444114  0.92797142    -0.11000
C1270       C  0.75980014  0.11114556  0.93598482     0.06200
C1271       C  0.74858805  0.09583261  0.93062799    -0.09700
C1272       C  0.74607312  0.09409044  0.91765281    -0.11400
C1273       C  0.75480052  0.10758194  0.90969754    -0.01200
C1274       C  0.76699926  0.12267287  0.91499461    -0.10300
C1275       C  0.75869445  0.11387021  0.94978021     0.06200
H1276       H  0.74138642  0.08523184  0.93647759     0.08100
H1277       H  0.73690495  0.08221796  0.91384524     0.11600
H1278       H  0.77404178  0.13326694  0.90910732     0.11800
H1279       H  0.77772839  0.13650826  0.93172710     0.08100
C1280       C  0.78227722  0.12395073  0.95589216    -0.11000
C1281       C  0.77808333  0.12875700  0.96839701    -0.10300
C1282       C  0.75025589  0.12355054  0.97504529    -0.01200
C1283       C  0.72802268  0.11245915  0.96924202    -0.11400
C1284       C  0.73214993  0.10769422  0.95677340    -0.09800
H1285       H  0.80342201  0.12861592  0.95087914     0.08100
H1286       H  0.79577678  0.13721135  0.97266455     0.11800
H1287       H  0.70637786  0.10818370  0.97413993     0.11600
H1288       H  0.71336251  0.10001011  0.95241422     0.08100
C1289       C  0.96670536  0.38572284  0.14758098    -0.11000
C1290       C  0.94776682  0.39964338  0.14349927     0.06200
C1291       C  0.96390667  0.41401124  0.13867659    -0.09700
C1292       C  0.99799156  0.41446488  0.13790505    -0.11400
C1293       C  0.01696308  0.40058433  0.14195847    -0.01200
C1294       C  0.00097352  0.38621565  0.14686076    -0.10300
C1295       C  0.91132628  0.39923953  0.14396883     0.06200
H1296       H  0.95011206  0.42482780  0.13526528     0.08100
H1297       H  0.00950748  0.42570564  0.13403663     0.11600
H1298       H  0.01493041  0.37534878  0.15008525     0.11800
H1299       H  0.95502260  0.37451741  0.15142047     0.08100
C1300       C  0.89389188  0.38464889  0.14021883    -0.11000
C1301       C  0.85963735  0.38483119  0.13970431    -0.10300
C1302       C  0.84207328  0.39958429  0.14295577    -0.01200
C1303       C  0.85944425  0.41398943  0.14706004    -0.11400
C1304       C  0.89361600  0.41381058  0.14757491    -0.09800
H1305       H  0.90677825  0.37328064  0.13727535     0.08100
H1306       H  0.84692602  0.37356048  0.13645822     0.11800
H1307       H  0.84661887  0.42551981  0.14970076     0.11600
H1308       H  0.90625474  0.42517157  0.15069359     0.08100
C1309       C  0.77623535  0.26158204  0.99817903    -0.11000
C1310       C  0.74538148  0.25425889  0.00013547     0.06200
C1311       C  0.71805476  0.26509700  0.00127406    -0.09700
C1312       C  0.72177946  0.28286471  0.00091746    -0.11400
C1313       C  0.75289713  0.29006637  0.99938084    -0.01200
C1314       C  0.77989831  0.27923340  0.99777331    -0.10300
C1315       C  0.74230183  0.23545872  0.00160312     0.06200
H1316       H  0.69382780  0.25984520  0.00256571     0.08100
H1317       H  0.70053219  0.29092972  0.00207356     0.11600
H1318       H  0.80421612  0.28440930  0.99653172     0.11800
H1319       H  0.79783874  0.25370305  0.99742336     0.08100
C1320       C  0.76164152  0.22422946  0.99448053    -0.11000
C1321       C  0.75969341  0.20659228  0.99628053    -0.10300
C1322       C  0.73816291  0.19981605  0.00516703    -0.01200
C1323       C  0.71893555  0.21098647  0.01230967    -0.11400
C1324       C  0.72102072  0.22860109  0.01057678    -0.09800
H1325       H  0.77805615  0.22905929  0.98739308     0.08100
H1326       H  0.77455633  0.19825445  0.99056847     0.11800
H1327       H  0.70212385  0.20609755  0.01924766     0.11600
H1328       H  0.70632849  0.23685176  0.01640376     0.08100
C1329       C  0.72187059  0.37689847  0.05253390    -0.11000
C1330       C  0.73507466  0.36768385  0.06263472     0.06200
C1331       C  0.75268613  0.35268812  0.06006457    -0.09700
C1332       C  0.75794418  0.34737397  0.04776152    -0.11400
C1333       C  0.74567599  0.35685199  0.03765892    -0.01200
C1334       C  0.72707545  0.37152493  0.04017805    -0.10300
C1335       C  0.73239243  0.37408011  0.07574452     0.06200
H1336       H  0.76353461  0.34536579  0.06755409     0.08100
H1337       H  0.77233207  0.33599046  0.04615745     0.11600
H1338       H  0.71712762  0.37903061  0.03260281     0.11800
H1339       H  0.70779111  0.38836592  0.05418014     0.08100
C1340       C  0.73635169  0.39152704  0.07844657    -0.11000
C1341       C  0.73702146  0.39732700  0.09082475    -0.10300
C1342       C  0.73370423  0.38583946  0.10080471    -0.01200
C1343       C  0.72874538  0.36849414  0.09812361    -0.11400
C1344       C  0.72807936  0.36269186  0.08575718    -0.09800
H1345       H  0.74012241  0.40063415  0.07100169     0.08100
H1346       H  0.74082857  0.41079000  0.09259027     0.11800
H1347       H  0.72581350  0.35935303  0.10560579     0.11600
H1348       H  0.72448144  0.34920643  0.08403082     0.08100
C1349       C  0.20620201  0.25802303  0.00210160    -0.11000
C1350       C  0.23848786  0.25818298  0.00660916     0.06200
C1351       C  0.25194002  0.27378777  0.01057304    -0.09700
C1352       C  0.23364514  0.28884866  0.00997954    -0.11400
C1353       C  0.20139023  0.28860563  0.00552699    -0.01200
C1354       C  0.18783327  0.27304527  0.00163411    -0.10300
C1355       C  0.25794070  0.24213956  0.00719155     0.06200
H1356       H  0.27650658  0.27434625  0.01430655     0.08100
H1357       H  0.24458099  0.30064166  0.01314879     0.11600
H1358       H  0.16304022  0.27249909  0.99810848     0.11800
H1359       H  0.19522552  0.24632692  0.99878368     0.08100
C1360       C  0.24304760  0.22659386  0.01043385    -0.11000
C1361       C  0.26130647  0.21153990  0.01102479    -0.10300
C1362       C  0.29493465  0.21173490  0.00852134    -0.01200
C1363       C  0.30988557  0.22719396  0.00522093    -0.11400
C1364       C  0.29158874  0.24222346  0.00451741    -0.09800
H1365       H  0.21730614  0.22607963  0.01272604     0.08100
H1366       H  0.24921327  0.19980286  0.01360744     0.11800
H1367       H  0.33575001  0.22766471  0.00311095     0.11600
H1368       H  0.30373968  0.25386459  0.00175558     0.08100
C1369       C  0.92315894  0.33167683  0.99368819    -0.11000
C1370       C  0.94093221  0.34376920  0.00058645     0.06200
C1371       C  0.92384660  0.35691699  0.00670752    -0.09700
C1372       C  0.88966185  0.35756497  0.00627110    -0.11400
C1373       C  0.87202831  0.34508446  0.99972325    -0.01200
C1374       C  0.88914525  0.33228734  0.99330034    -0.10300
C1375       C  0.97699869  0.34216911  0.00168499     0.06200
H1376       H  0.93680777  0.36635908  0.01216299     0.08100
H1377       H  0.87700802  0.36754854  0.01132456     0.11600
H1378       H  0.87620886  0.32254634  0.98811108     0.11800
H1379       H  0.93556486  0.32161920  0.98863097     0.08100
C1380       C  0.99137952  0.32596827  0.00292204    -0.11000
C1381       C  0.02521027  0.32418762  0.00370578    -0.10300
C1382       C  0.04550078  0.33856255  0.00334350    -0.01200
C1383       C  0.03130146  0.35481974  0.00225375    -0.11400
C1384       C  0.99732870  0.35661376  0.00144917    -0.09800
H1385       H  0.97643058  0.31460743  0.00339828     0.08100
H1386       H  0.03548459  0.31152419  0.00458636     0.11800
H1387       H  0.04644667  0.36612737  0.00193473     0.11600
H1388       H  0.98703460  0.36925057  0.00041208     0.08100
C1389       C  0.14763382  0.34579815  0.06321628    -0.11000
C1390       C  0.14928435  0.36341751  0.06565788     0.06200
C1391       C  0.15482335  0.37452427  0.05553396    -0.09700
C1392       C  0.15778102  0.36821771  0.04332425    -0.11400
C1393       C  0.15487569  0.35069402  0.04090242    -0.01200
C1394       C  0.15017314  0.33953921  0.05100779    -0.10300
C1395       C  0.14455059  0.37015441  0.07862748     0.06200
H1396       H  0.15583533  0.38816947  0.05696741     0.08100
H1397       H  0.16105728  0.37713340  0.03571038     0.11600
H1398       H  0.14800552  0.32594529  0.04944844     0.11800
H1399       H  0.14418938  0.33677840  0.07075126     0.08100
C1400       C  0.12242342  0.36229411  0.08689816    -0.11000
C1401       C  0.11784385  0.36860242  0.09901464    -0.10300
C1402       C  0.13504694  0.38300444  0.10316494    -0.01200
C1403       C  0.15704867  0.39093749  0.09494344    -0.11400
C1404       C  0.16181361  0.38456881  0.08285431    -0.09800
H1405       H  0.10815118  0.35140671  0.08395231     0.08100
H1406       H  0.10049425  0.36231226  0.10509314     0.11800
H1407       H  0.17068786  0.40206462  0.09787007     0.11600
H1408       H  0.17936454  0.39085927  0.07686953     0.08100
C1409       C  0.75381084  0.38151685  0.95004072    -0.11000
C1410       C  0.73170266  0.37260842  0.94237460     0.06200
C1411       C  0.71418158  0.35890513  0.94754378    -0.09700
C1412       C  0.71909832  0.35406676  0.96000915    -0.11400
C1413       C  0.74187594  0.36272316  0.96752979    -0.01200
C1414       C  0.75889336  0.37660334  0.96243542    -0.10300
C1415       C  0.72805440  0.37739112  0.92897029     0.06200
H1416       H  0.69679276  0.35186603  0.94192191     0.08100
H1417       H  0.70579765  0.34323134  0.96365311     0.11600
H1418       H  0.77682269  0.38343167  0.96795172     0.11800
H1419       H  0.76806108  0.39196247  0.94632816     0.08100
C1420       C  0.72790305  0.39463909  0.92543136    -0.11000
C1421       C  0.72778392  0.39927890  0.91284153    -0.10300
C1422       C  0.72790653  0.38679483  0.90343321    -0.01200
C1423       C  0.72678140  0.36952471  0.90690565    -0.11400
C1424       C  0.72672505  0.36486148  0.91955571    -0.09800
H1425       H  0.72834916  0.40460734  0.93243136     0.08100
H1426       H  0.72848269  0.41268481  0.91047777     0.11800
H1427       H  0.72681862  0.35961989  0.89985475     0.11600
H1428       H  0.72699691  0.35146319  0.92195697     0.08100
C1429       C  0.89468831  0.39758475  0.85226939    -0.11000
C1430       C  0.91282219  0.39936169  0.86340493     0.06200
C1431       C  0.89552566  0.39980190  0.87475745    -0.09700
C1432       C  0.86143891  0.39935429  0.87498925    -0.11400
C1433       C  0.84330116  0.39816606  0.86390781    -0.01200
C1434       C  0.86027440  0.39693812  0.85252517    -0.10300
C1435       C  0.94939462  0.40111944  0.86344132     0.06200
H1436       H  0.90831310  0.40052246  0.88358161     0.08100
H1437       H  0.84921090  0.40009076  0.88393483     0.11600
H1438       H  0.84696035  0.39597442  0.84382027     0.11800
H1439       H  0.90696774  0.39720932  0.84333195     0.08100
C1440       C  0.96943142  0.39253105  0.85475237    -0.11000
C1441       C  0.00375227  0.39349733  0.85557789    -0.10300
C1442       C  0.01874667  0.40302112  0.86512629    -0.01200
C1443       C  0.99874485  0.41204515  0.87347407    -0.11400
C1444       C  0.96474975  0.41122205  0.87259471    -0.09800
H1445       H  0.95867699  0.38462686  0.84755827     0.08100
H1446       H  0.01852233  0.38647359  0.84895001     0.11800
H1447       H  0.00941005  0.41970769  0.88083750     0.11600
H1448       H  0.95048379  0.41855689  0.87919405     0.08100
C1449       C  0.12120289  0.36513279  0.92365528    -0.11000
C1450       C  0.14871368  0.36993697  0.93073823     0.06200
C1451       C  0.17082615  0.38164619  0.92548870    -0.09700
C1452       C  0.16552676  0.38838645  0.91352966    -0.11400
C1453       C  0.13795696  0.38360908  0.90652710    -0.01200
C1454       C  0.11593375  0.37186304  0.91171911    -0.10300
C1455       C  0.15388095  0.36288176  0.94356999     0.06200
H1456       H  0.19245722  0.38549474  0.93058901     0.08100
H1457       H  0.18299659  0.39737930  0.90976593     0.11600
H1458       H  0.09436583  0.36796977  0.90658461     0.11800
H1459       H  0.10332725  0.35638277  0.92743530     0.08100
C1460       C  0.16579806  0.37318629  0.95335235    -0.11000
C1461       C  0.16829414  0.36680192  0.96557011    -0.10300
C1462       C  0.15894935  0.34997321  0.96827667    -0.01200
C1463       C  0.14830198  0.33950079  0.95841922    -0.11400
C1464       C  0.14582695  0.34584726  0.94625560    -0.09800
H1465       H  0.17203117  0.38639533  0.95166837     0.08100
H1466       H  0.17640065  0.37520921  0.97296558     0.11800
H1467       H  0.14103377  0.32644203  0.96016016     0.11600
H1468       H  0.13725644  0.33740943  0.93895111     0.08100
C1469       C  0.73155960  0.51677087  0.13174579    -0.11000
C1470       C  0.71756125  0.50868561  0.14215819     0.06200
C1471       C  0.70766795  0.51877228  0.15234683    -0.09700
C1472       C  0.71177733  0.53652558  0.15210164    -0.11400
C1473       C  0.72609129  0.54448512  0.14171141    -0.01200
C1474       C  0.73580105  0.53441993  0.13153514    -0.10300
C1475       C  0.71480032  0.48975518  0.14241106     0.06200
H1476       H  0.69665291  0.51294314  0.16047839     0.08100
H1477       H  0.70406103  0.54400252  0.16007422     0.11600
H1478       H  0.74692417  0.54018355  0.12340044     0.11800
H1479       H  0.74004785  0.50939791  0.12384306     0.08100
C1480       C  0.70665211  0.48076483  0.13148794    -0.11000
C1481       C  0.70858273  0.46299996  0.13111081    -0.10300
C1482       C  0.71860521  0.45376236  0.14165247    -0.01200
C1483       C  0.72487744  0.46260342  0.15281357    -0.11400
C1484       C  0.72290554  0.48044353  0.15319985    -0.09800
H1485       H  0.69959279  0.48751832  0.12309769     0.08100
H1486       H  0.70333199  0.45653154  0.12240059     0.11800
H1487       H  0.73252662  0.45578836  0.16110180     0.11600
H1488       H  0.72939173  0.48697226  0.16175776     0.08100
C1489       C  0.96738461  0.60141118  0.15402392    -0.11000
C1490       C  0.94702451  0.60422708  0.14364868     0.06200
C1491       C  0.96147376  0.60693999  0.13192266    -0.09700
C1492       C  0.99539663  0.60691999  0.13057753    -0.11400
C1493       C  0.01576591  0.60423571  0.14092931    -0.01200
C1494       C  0.00146544  0.60150394  0.15268705    -0.10300
C1495       C  0.91082227  0.60436897  0.14488335     0.06200
H1496       H  0.94645550  0.60883729  0.12371551     0.08100
H1497       H  0.00569234  0.60887348  0.12138179     0.11600
H1498       H  0.01660876  0.59926209  0.16081354     0.11800
H1499       H  0.95694354  0.59933273  0.16318215     0.08100
C1500       C  0.89445957  0.59181031  0.15184397    -0.11000
C1501       C  0.86021931  0.59127869  0.15208195    -0.10300
C1502       C  0.84170400  0.60335914  0.14543863    -0.01200
C1503       C  0.85810329  0.61625541  0.13886838    -0.11400
C1504       C  0.89222838  0.61674067  0.13858548    -0.09800
H1505       H  0.90811926  0.58204050  0.15672282     0.08100
H1506       H  0.84824093  0.58113186  0.15717196     0.11800
H1507       H  0.84454442  0.62573486  0.13365681     0.11600
H1508       H  0.90414013  0.62672091  0.13329870     0.08100
C1509       C  0.14479960  0.52001825  0.13041344    -0.11000
C1510       C  0.12786461  0.51089259  0.13964763     0.06200
C1511       C  0.10947459  0.51996760  0.14852611    -0.09700
C1512       C  0.10796029  0.53779355  0.14810833    -0.11400
C1513       C  0.12494370  0.54685047  0.13884685    -0.01200
C1514       C  0.14334998  0.53778527  0.13001795    -0.10300
C1515       C  0.12897459  0.49197012  0.13977700     0.06200
H1516       H  0.09578907  0.51326588  0.15564024     0.08100
H1517       H  0.09331762  0.54447804  0.15496416     0.11600
H1518       H  0.15656388  0.54443313  0.12274870     0.11800
H1519       H  0.15943086  0.51340360  0.12352301     0.08100
C1520       C  0.12690001  0.48283004  0.12852718    -0.11000
C1521       C  0.12775359  0.46505615  0.12851256    -0.10300
C1522       C  0.13040536  0.45597291  0.13974946    -0.01200
C1523       C  0.13280870  0.46503428  0.15102175    -0.11400
C1524       C  0.13213698  0.48289602  0.15103370    -0.09800
H1525       H  0.12394695  0.48942819  0.11972606     0.08100
H1526       H  0.12548851  0.45840282  0.11969177     0.11800
H1527       H  0.13487990  0.45831910  0.15981257     0.11600
H1528       H  0.13420309  0.48961681  0.15983071     0.08100
C1529       C  0.75135137  0.76608110  0.00232308    -0.11000
C1530       C  0.72498554  0.75548928  0.99891497     0.06200
C1531       C  0.69479469  0.76320478  0.99611467    -0.09700
C1532       C  0.69100641  0.78090721  0.99690944    -0.11400
C1533       C  0.71736953  0.79137028  0.00033570    -0.01200
C1534       C  0.74765801  0.78380628  0.00292871    -0.10300
C1535       C  0.72890673  0.73652411  0.99852724     0.06200
H1536       H  0.67408995  0.75561571  0.99322366     0.08100
H1537       H  0.66738056  0.78642441  0.99477780     0.11600
H1538       H  0.76831050  0.79155602  0.00566471     0.11800
H1539       H  0.77481156  0.76069335  0.00481628     0.08100
C1540       C  0.75906362  0.72916828  0.99521649    -0.11000
C1541       C  0.76351053  0.71150653  0.99557756    -0.10300
C1542       C  0.73792358  0.70067277  0.99915561    -0.01200
C1543       C  0.70744003  0.70785346  0.00210292    -0.11400
C1544       C  0.70299046  0.72557654  0.00180455    -0.09800
H1545       H  0.77937149  0.73703410  0.99233822     0.08100
H1546       H  0.78727385  0.70634174  0.99321319     0.11800
H1547       H  0.68726098  0.69980938  0.00488358     0.11600
H1548       H  0.67947967  0.73067695  0.00454589     0.08100
C1549       C  0.73185875  0.60909711  0.05462150    -0.11000
C1550       C  0.72126352  0.62104161  0.06358449     0.06200
C1551       C  0.71134460  0.63725917  0.05944600    -0.09700
C1552       C  0.71387283  0.64177736  0.04686155    -0.11400
C1553       C  0.72628628  0.63019220  0.03805226    -0.01200
C1554       C  0.73441214  0.61364495  0.04199903    -0.10300
C1555       C  0.72245297  0.61705393  0.07722241     0.06200
H1556       H  0.70224423  0.64665000  0.06599268     0.08100
H1557       H  0.70730797  0.65461582  0.04411464     0.11600
H1558       H  0.74404284  0.60443714  0.03541879     0.11800
H1559       H  0.73979266  0.59650319  0.05742522     0.08100
C1560       C  0.71546776  0.60058523  0.08168470    -0.11000
C1561       C  0.71786102  0.59684342  0.09443651    -0.10300
C1562       C  0.72728291  0.60946232  0.10303661    -0.01200
C1563       C  0.73410568  0.62592217  0.09863725    -0.11400
C1564       C  0.73174603  0.62966893  0.08589940    -0.09800
H1565       H  0.70798991  0.59058174  0.07533630     0.08100
H1566       H  0.71259227  0.58400678  0.09755290     0.11800
H1567       H  0.74168854  0.63586741  0.10502192     0.11600
H1568       H  0.73803586  0.64238722  0.08282681     0.08100
C1569       C  0.22553140  0.77737976  0.99618894    -0.11000
C1570       C  0.24073641  0.76155379  0.99838750     0.06200
C1571       C  0.27472568  0.76120617  0.00033140    -0.09700
C1572       C  0.29282499  0.77630688  0.00038238    -0.11400
C1573       C  0.27736022  0.79210706  0.99863007    -0.01200
C1574       C  0.24360693  0.79250138  0.99638171    -0.10300
C1575       C  0.22111951  0.74557682  0.99904477     0.06200
H1576       H  0.28726410  0.74933465  0.00219352     0.08100
H1577       H  0.31887599  0.77563616  0.00211579     0.11600
H1578       H  0.23116290  0.80449273  0.99484674     0.11800
H1579       H  0.19955155  0.77811910  0.99434520     0.08100
C1580       C  0.18953165  0.74576826  0.00422667    -0.11000
C1581       C  0.17101900  0.73083868  0.00489408    -0.10300
C1582       C  0.18381742  0.71531404  0.00061016    -0.01200
C1583       C  0.21548695  0.71497057  0.99560004    -0.11400
C1584       C  0.23384458  0.72996868  0.99472938    -0.09800
H1585       H  0.17921995  0.75741249  0.00793887     0.08100
H1586       H  0.14677785  0.73140039  0.00893885     0.11800
H1587       H  0.22583964  0.70315632  0.99218116     0.11600
H1588       H  0.25788064  0.72934299  0.99053077     0.08100
C1589       C  0.90565534  0.66146826  0.01757727    -0.11000
C1590       C  0.92580290  0.65335719  0.00876987     0.06200
C1591       C  0.91132152  0.64285716  0.99967422    -0.09700
C1592       C  0.87736270  0.64116957  0.99902767    -0.11400
C1593       C  0.85722026  0.64989739  0.00749641    -0.01200
C1594       C  0.87170429  0.65974190  0.01694895    -0.10300
C1595       C  0.96153786  0.65663420  0.00855958     0.06200
H1596       H  0.92616209  0.63650394  0.99271317     0.08100
H1597       H  0.86684928  0.63341767  0.99169569     0.11600
H1598       H  0.85675063  0.66646146  0.02368526     0.11800
H1599       H  0.91614004  0.66936636  0.02483156     0.08100
C1600       C  0.97372627  0.67324949  0.01029833    -0.11000
C1601       C  0.00718966  0.67658580  0.00921292    -0.10300
C1602       C  0.02909974  0.66334689  0.00645274    -0.01200
C1603       C  0.01700470  0.64670693  0.00495396    -0.11400
C1604       C  0.98361169  0.64338714  0.00597053    -0.09800
H1605       H  0.95727412  0.68376059  0.01214752     0.08100
H1606       H  0.01588207  0.68952103  0.01044976     0.11800
H1607       H  0.03337945  0.63622250  0.00287460     0.11600
H1608       H  0.97503308  0.63043926  0.00471299     0.08100
C1609       C  0.15417964  0.62909891  0.05277958    -0.11000
C1610       C  0.14313649  0.63905249  0.06289249     0.06200
C1611       C  0.13385179  0.65602209  0.06062742    -0.09700
C1612       C  0.13507287  0.66280499  0.04860564    -0.11400
C1613       C  0.14535744  0.65278208  0.03847586    -0.01200
C1614       C  0.15526400  0.63590436  0.04068011    -0.10300
C1615       C  0.14028808  0.63179794  0.07571045     0.06200
H1616       H  0.12461581  0.66397388  0.06809782     0.08100
H1617       H  0.12694529  0.67579801  0.04719420     0.11600
H1618       H  0.16311502  0.62786429  0.03303017     0.11800
H1619       H  0.16185196  0.61603741  0.05420514     0.08100
C1620       C  0.12938459  0.61498484  0.07755118    -0.11000
C1621       C  0.12505887  0.60854019  0.08961719    -0.10300
C1622       C  0.13132599  0.61877465  0.10012373    -0.01200
C1623       C  0.14259505  0.63548281  0.09832142    -0.11400
C1624       C  0.14716457  0.64189622  0.08626533    -0.09800
H1625       H  0.12338843  0.60692668  0.06967142     0.08100
H1626       H  0.11627621  0.59560396  0.09072282     0.11800
H1627       H  0.14790204  0.64361805  0.10624620     0.11600
H1628       H  0.15613785  0.65478781  0.08521391     0.08100
C1629       C  0.58397087  0.67014762  0.83409013    -0.11000
C1630       C  0.59758412  0.65604996  0.82780634     0.06200
C1631       C  0.59275535  0.65476083  0.81482212    -0.09700
C1632       C  0.57810342  0.66808182  0.80815361    -0.11400
C1633       C  0.56736855  0.68282681  0.81433383    -0.01200
C1634       C  0.56919862  0.68343470  0.82739742    -0.10300
C1635       C  0.62045532  0.64418571  0.83441819     0.06200
H1636       H  0.60225800  0.64394368  0.80968329     0.08100
H1637       H  0.57784627  0.66753679  0.79805574     0.11600
H1638       H  0.56202275  0.69491533  0.83231862     0.11800
H1639       H  0.58732982  0.67170020  0.84404426     0.08100
C1640       C  0.61550637  0.63950601  0.84696036    -0.11000
C1641       C  0.63899589  0.62984638  0.85339568    -0.10300
C1642       C  0.66805769  0.62469496  0.84746278    -0.01200
C1643       C  0.67268893  0.62904994  0.83489673    -0.11400
C1644       C  0.64924986  0.63863273  0.82846480    -0.09800
H1645       H  0.59359825  0.64342603  0.85184131     0.08100
H1646       H  0.63462314  0.62661768  0.86307094     0.11800
H1647       H  0.69473919  0.62525086  0.83005808     0.11600
H1648       H  0.65438876  0.64224079  0.81892297     0.08100
C1649       C  0.75829398  0.51719292  0.85826163    -0.11000
C1650       C  0.72793821  0.50887985  0.85749003     0.06200
C1651       C  0.69928850  0.51882227  0.85775352    -0.09700
C1652       C  0.70101545  0.53660198  0.85906885    -0.11400
C1653       C  0.73138967  0.54475037  0.86034090    -0.01200
C1654       C  0.75998335  0.53488360  0.85973977    -0.10300
C1655       C  0.72647326  0.48987966  0.85728830     0.06200
H1656       H  0.67554284  0.51282175  0.85706106     0.08100
H1657       H  0.67858550  0.54391928  0.85944159     0.11600
H1658       H  0.78374840  0.54083434  0.86059898     0.11800
H1659       H  0.78081277  0.50994087  0.85821936     0.08100
C1660       C  0.74909688  0.48032618  0.85028809    -0.11000
C1661       C  0.75022933  0.46252542  0.85127867    -0.10300
C1662       C  0.72891350  0.45387761  0.85935621    -0.01200
C1663       C  0.70541019  0.46333341  0.86596055    -0.11400
C1664       C  0.70410968  0.48111931  0.86490020    -0.09800
H1665       H  0.76638127  0.48666917  0.84421158     0.08100
H1666       H  0.76852058  0.45557737  0.84603333     0.11800
H1667       H  0.68858871  0.45701635  0.87223649     0.11600
H1668       H  0.68656370  0.48807664  0.87049635     0.08100
C1669       C  0.71970796  0.59718402  0.92626350    -0.11000
C1670       C  0.72270143  0.61405632  0.93064832     0.06200
C1671       C  0.72830955  0.62709269  0.92188326    -0.09700
C1672       C  0.73088600  0.62341669  0.90916523    -0.11400
C1673       C  0.72810250  0.60659663  0.90481824    -0.01200
C1674       C  0.72241773  0.59349714  0.91348757    -0.10300
C1675       C  0.72140245  0.61815850  0.94427618     0.06200
H1676       H  0.73155439  0.64017342  0.92486056     0.08100
H1677       H  0.73544481  0.63378645  0.90272536     0.11600
H1678       H  0.72016599  0.58039512  0.91039570     0.11800
H1679       H  0.71510739  0.58682020  0.93269479     0.08100
C1680       C  0.70827205  0.63376308  0.94842129    -0.11000
C1681       C  0.71082175  0.63867453  0.96093569    -0.10300
C1682       C  0.72636243  0.62807879  0.96967756    -0.01200
C1683       C  0.73773444  0.61203975  0.96575031    -0.11400
C1684       C  0.73526890  0.60712211  0.95319393    -0.09800
H1685       H  0.69664150  0.64242097  0.94192650     0.08100
H1686       H  0.70173834  0.65110377  0.96366602     0.11800
H1687       H  0.74988753  0.60360951  0.97226938     0.11600
H1688       H  0.74579312  0.59505623  0.95038847     0.08100
C1689       C  0.25570876  0.63396857  0.80604013    -0.11000
C1690       C  0.25046510  0.64175361  0.81768207     0.06200
C1691       C  0.26395414  0.65801610  0.81981708    -0.09700
C1692       C  0.27896008  0.66704968  0.81006294    -0.11400
C1693       C  0.28085716  0.65990304  0.79806817    -0.01200
C1694       C  0.27077139  0.64293555  0.79636080    -0.10300
C1695       C  0.22738068  0.63397422  0.82682565     0.06200
H1696       H  0.26032477  0.66435575  0.82868951     0.08100
H1697       H  0.28592282  0.68019648  0.81159220     0.11600
H1698       H  0.27198763  0.63712031  0.78719532     0.11800
H1699       H  0.24625797  0.62132018  0.80417839     0.08100
C1700       C  0.19733229  0.62734701  0.82265997    -0.11000
C1701       C  0.17420835  0.62116632  0.83114206    -0.10300
C1702       C  0.18061521  0.62125387  0.84401526    -0.01200
C1703       C  0.21086282  0.62759252  0.84820997    -0.11400
C1704       C  0.23388828  0.63402329  0.83970970    -0.09800
H1705       H  0.19128401  0.62737768  0.81282559     0.08100
H1706       H  0.15123490  0.61631397  0.82760522     0.11800
H1707       H  0.21655826  0.62775840  0.85806864     0.11600
H1708       H  0.25679324  0.63902330  0.84320252     0.08100
C1709       C  0.96066229  0.59641084  0.85325606    -0.11000
C1710       C  0.94325902  0.61009060  0.85859634     0.06200
C1711       C  0.96124606  0.62311362  0.86452151    -0.09700
C1712       C  0.99532906  0.62205771  0.86563180    -0.11400
C1713       C  0.01244353  0.60800503  0.86079016    -0.01200
C1714       C  0.99478116  0.59538704  0.85434480    -0.10300
C1715       C  0.90659225  0.61017545  0.85879929     0.06200
H1716       H  0.94891806  0.63405216  0.86850129     0.08100
H1717       H  0.00821480  0.63206144  0.87056971     0.11600
H1718       H  0.00724564  0.58440774  0.85047640     0.11800
H1719       H  0.94783761  0.58606296  0.84870442     0.08100
C1720       C  0.88804118  0.60349092  0.84883483    -0.11000
C1721       C  0.85380305  0.60247026  0.84960277    -0.10300
C1722       C  0.83727496  0.60817550  0.86032209    -0.01200
C1723       C  0.85568210  0.61526050  0.87010463    -0.11400
C1724       C  0.88976445  0.61619986  0.86937642    -0.09800
H1725       H  0.89999053  0.59889887  0.84047245     0.08100
H1726       H  0.84032610  0.59688007  0.84192199     0.11800
H1727       H  0.84379255  0.61959708  0.87855910     0.11600
H1728       H  0.90299446  0.62109561  0.87735821     0.08100
C1729       C  0.11104352  0.52137930  0.88014755    -0.11000
C1730       C  0.12667730  0.51237794  0.87048892     0.06200
C1731       C  0.14120916  0.52169370  0.86073523    -0.09700
C1732       C  0.13957181  0.53952463  0.86052738    -0.11400
C1733       C  0.12334725  0.54841734  0.87006270    -0.01200
C1734       C  0.10941549  0.53917792  0.87993332    -0.10300
C1735       C  0.12723972  0.49336800  0.87047897     0.06200
H1736       H  0.15393034  0.51519256  0.85326115     0.08100
H1737       H  0.15065958  0.54633671  0.85282989     0.11600
H1738       H  0.09677656  0.54570549  0.88742159     0.11800
H1739       H  0.09928115  0.51465183  0.88773032     0.08100
C1740       C  0.13121622  0.48421201  0.88166392    -0.11000
C1741       C  0.13135462  0.46636538  0.88164411    -0.10300
C1742       C  0.12749211  0.45723252  0.87044994    -0.01200
C1743       C  0.12336830  0.46633481  0.85928014    -0.11400
C1744       C  0.12329573  0.48418795  0.85929001    -0.09800
H1745       H  0.13457689  0.49084106  0.89043961     0.08100
H1746       H  0.13430541  0.45970240  0.89042358     0.11800
H1747       H  0.11996760  0.45964884  0.85053311     0.11600
H1748       H  0.11953590  0.49080716  0.85054234     0.08100
C1749       C  0.13740727  0.61384713  0.92705348    -0.11000
C1750       C  0.13226801  0.63123284  0.92972344     0.06200
C1751       C  0.12520709  0.64231172  0.91973954    -0.09700
C1752       C  0.12236965  0.63618498  0.90755014    -0.11400
C1753       C  0.12697699  0.61884789  0.90490975    -0.01200
C1754       C  0.13485718  0.60772391  0.91476740    -0.10300
C1755       C  0.13324947  0.63794003  0.94279260     0.06200
H1756       H  0.12193036  0.65582876  0.92130818     0.08100
H1757       H  0.11645807  0.64508738  0.90015907     0.11600
H1758       H  0.13845360  0.59425858  0.91301382     0.11800
H1759       H  0.14258502  0.60488229  0.93448120     0.08100
C1760       C  0.11203367  0.65118422  0.94635926    -0.11000
C1761       C  0.11320903  0.65807412  0.95834635    -0.10300
C1762       C  0.13521793  0.65174614  0.96725552    -0.01200
C1763       C  0.15610053  0.63827696  0.96390007    -0.11400
C1764       C  0.15524042  0.63147517  0.95176140    -0.09800
H1765       H  0.09405181  0.65618449  0.93990998     0.08100
H1766       H  0.09640694  0.66824024  0.96069488     0.11800
H1767       H  0.17319391  0.63308383  0.97062221     0.11600
H1768       H  0.17209421  0.62136665  0.94936165     0.08100
C1769       C  0.01814152  0.32723267  0.72672861    -0.11000
C1770       C  0.02926380  0.31911473  0.71582810     0.06200
C1771       C  0.00589369  0.31301172  0.70724129    -0.09700
C1772       C  0.97227973  0.31441340  0.70974036    -0.11400
C1773       C  0.96146856  0.32164907  0.72097660    -0.01200
C1774       C  0.98466072  0.32832363  0.72931263    -0.10300
C1775       C  0.06489175  0.31559596  0.71408978     0.06200
H1776       H  0.01368932  0.30674870  0.69873727     0.08100
H1777       H  0.95481142  0.30903298  0.70326297     0.11600
H1778       H  0.97674091  0.33383345  0.73807804     0.11800
H1779       H  0.03538714  0.33190155  0.73358603     0.08100
C1780       C  0.08874770  0.32814545  0.71650114    -0.11000
C1781       C  0.12225134  0.32416420  0.71591340    -0.10300
C1782       C  0.13248486  0.30749078  0.71315950    -0.01200
C1783       C  0.10869607  0.29509770  0.71048836    -0.11400
C1784       C  0.07538362  0.29910852  0.71087008    -0.09800
H1785       H  0.08145062  0.34095910  0.71901278     0.08100
H1786       H  0.14009923  0.33387396  0.71813548     0.11800
H1787       H  0.11600459  0.28215223  0.70837856     0.11600
H1788       H  0.05775051  0.28909283  0.70914335     0.08100
C1789       C  0.28172044  0.16471037  0.84787062    -0.11000
C1790       C  0.25961331  0.15689703  0.83958832     0.06200
C1791       C  0.26090519  0.13906825  0.83816798    -0.09700
C1792       C  0.28353595  0.12930969  0.84496331    -0.11400
C1793       C  0.30584439  0.13722033  0.85310372    -0.01200
C1794       C  0.30464514  0.15501130  0.85447694    -0.10300
C1795       C  0.23660788  0.16757674  0.83209006     0.06200
H1796       H  0.24422089  0.13266418  0.83186845     0.08100
H1797       H  0.28380771  0.11560390  0.84376566     0.11600
H1798       H  0.32135357  0.16145772  0.86074585     0.11800
H1799       H  0.28177337  0.17841588  0.84903892     0.08100
C1800       C  0.22046801  0.18158183  0.83754511    -0.11000
C1801       C  0.20370071  0.19344333  0.83012951    -0.10300
C1802       C  0.20253354  0.19152158  0.81712440    -0.01200
C1803       C  0.21658138  0.17689232  0.81176170    -0.11400
C1804       C  0.23325456  0.16497541  0.81916643    -0.09800
H1805       H  0.22233000  0.18385986  0.84748186     0.08100
H1806       H  0.19411418  0.20490222  0.83443805     0.11800
H1807       H  0.21718172  0.17548557  0.80171077     0.11600
H1808       H  0.24567787  0.15445557  0.81464275     0.08100
C1809       C  0.13589392  0.27865984  0.75085550    -0.11000
C1810       C  0.14466405  0.26145185  0.75250919     0.06200
C1811       C  0.15882970  0.25264666  0.74244154    -0.09700
C1812       C  0.16688844  0.26124946  0.73144245    -0.11400
C1813       C  0.16055759  0.27877621  0.73019384    -0.01200
C1814       C  0.14363950  0.28723102  0.73976595    -0.10300
C1815       C  0.14504417  0.25357921  0.76515505     0.06200
H1816       H  0.16629961  0.23947460  0.74345235     0.08100
H1817       H  0.18014800  0.25447200  0.72423419     0.11600
H1818       H  0.13898431  0.30078433  0.73914847     0.11800
H1819       H  0.12493193  0.28576250  0.75844563     0.08100
C1820       C  0.15923642  0.26257654  0.77512464    -0.11000
C1821       C  0.16826566  0.25410113  0.78605631    -0.10300
C1822       C  0.16299037  0.23650329  0.78735121    -0.01200
C1823       C  0.14568245  0.22783843  0.77796397    -0.11400
C1824       C  0.13694893  0.23629961  0.76691075    -0.09800
H1825       H  0.16608772  0.27582097  0.77405830     0.08100
H1826       H  0.18163075  0.26106685  0.79315647     0.11800
H1827       H  0.14156215  0.21424337  0.77867421     0.11600
H1828       H  0.12581872  0.22907514  0.75940853     0.08100
C1829       C  0.88370050  0.14978775  0.81235680    -0.11000
C1830       C  0.87518216  0.15722846  0.82385979     0.06200
C1831       C  0.88569007  0.17400902  0.82631713    -0.09700
C1832       C  0.90135131  0.18361413  0.81700828    -0.11400
C1833       C  0.90672586  0.17660448  0.80513172    -0.01200
C1834       C  0.89901652  0.15940677  0.80307067    -0.10300
C1835       C  0.85248844  0.14812384  0.83253802     0.06200
H1836       H  0.87954318  0.18014927  0.83504870     0.08100
H1837       H  0.90638446  0.19697528  0.81870441     0.11600
H1838       H  0.90260649  0.15379599  0.79393704     0.11800
H1839       H  0.87677614  0.13676815  0.81025665     0.08100
C1840       C  0.82575378  0.13898062  0.82767515    -0.11000
C1841       C  0.80396537  0.13046139  0.83555651    -0.10300
C1842       C  0.80842776  0.13062076  0.84853874    -0.01200
C1843       C  0.83480806  0.13995228  0.85349755    -0.11400
C1844       C  0.85643113  0.14875483  0.84558429    -0.09800
H1845       H  0.82137738  0.13856890  0.81771684     0.08100
H1846       H  0.78382338  0.12348448  0.83144863     0.11800
H1847       H  0.83868260  0.14044628  0.86348284     0.11600
H1848       H  0.87657583  0.15577212  0.84965575     0.08100
C1849       C  0.01079257  0.20705708  0.81079021    -0.11000
C1850       C  0.03441514  0.19803911  0.80381542     0.06200
C1851       C  0.02380448  0.18804140  0.79369367    -0.09700
C1852       C  0.99091839  0.18799819  0.79013678    -0.11400
C1853       C  0.96791762  0.19779408  0.79665757    -0.01200
C1854       C  0.97780550  0.20694243  0.80722478    -0.10300
C1855       C  0.07009942  0.20094255  0.80586808     0.06200
H1856       H  0.04119561  0.18109283  0.78802980     0.08100
H1857       H  0.98348016  0.18083825  0.78196996     0.11600
H1858       H  0.96024911  0.21447515  0.81238435     0.11800
H1859       H  0.01802800  0.21470301  0.81874555     0.08100
C1860       C  0.08141075  0.21756135  0.80812724    -0.11000
C1861       C  0.11475565  0.22120446  0.80798277    -0.10300
C1862       C  0.13787781  0.20839306  0.80555533    -0.01200
C1863       C  0.12701010  0.19153297  0.80407594    -0.11400
C1864       C  0.09336008  0.18783858  0.80417549    -0.09800
H1865       H  0.06441325  0.22802599  0.80929859     0.08100
H1866       H  0.12257081  0.23426376  0.80929595     0.11800
H1867       H  0.14436599  0.18142529  0.80220814     0.11600
H1868       H  0.08548599  0.17485615  0.80252955     0.08100
C1869       C  0.95062439  0.23820386  0.75616825    -0.11000
C1870       C  0.95661699  0.25324145  0.76295748     0.06200
C1871       C  0.95958312  0.25200502  0.77605707    -0.09700
C1872       C  0.95314639  0.23655951  0.78222654    -0.11400
C1873       C  0.94383255  0.22207617  0.77539874    -0.01200
C1874       C  0.94428365  0.22286655  0.76231627    -0.10300
C1875       C  0.95408891  0.27017557  0.75655738     0.06200
H1876       H  0.96485873  0.26321364  0.78160453     0.08100
H1877       H  0.95265852  0.23636066  0.79232772     0.11600
H1878       H  0.93711870  0.21186787  0.75683806     0.11800
H1879       H  0.94784910  0.23849834  0.74612743     0.08100
C1880       C  0.96322781  0.27219180  0.74394788    -0.11000
C1881       C  0.95349886  0.28662346  0.73715139    -0.10300
C1882       C  0.93477028  0.29945091  0.74284959    -0.01200
C1883       C  0.92814572  0.29814152  0.75567753    -0.11400
C1884       C  0.93761325  0.28372579  0.76243507    -0.09800
H1885       H  0.97638744  0.26219297  0.73912826     0.08100
H1886       H  0.95857707  0.28707932  0.72725158     0.11800
H1887       H  0.91379129  0.30784632  0.76033928     0.11600
H1888       H  0.92970470  0.28270277  0.77204161     0.08100
C1889       C  0.22727660  0.84689955  0.81962247    -0.11000
C1890       C  0.23271365  0.86464850  0.81965042     0.06200
C1891       C  0.22074566  0.87420120  0.80948748    -0.09700
C1892       C  0.20610990  0.86609250  0.79922258    -0.11400
C1893       C  0.20269763  0.84828063  0.79890440    -0.01200
C1894       C  0.21274191  0.83883308  0.80933801    -0.10300
C1895       C  0.25332854  0.87287144  0.82958031     0.06200
H1896       H  0.22479451  0.88781984  0.80900971     0.08100
H1897       H  0.19984226  0.87359971  0.79108913     0.11600
H1898       H  0.21173179  0.82503187  0.80912201     0.11800
H1899       H  0.23559569  0.83909275  0.82730899     0.08100
C1900       C  0.28034936  0.86416283  0.83469046    -0.11000
C1901       C  0.30127316  0.87216476  0.84323290    -0.10300
C1902       C  0.29592861  0.88911671  0.84691961    -0.01200
C1903       C  0.26852497  0.89774579  0.84212685    -0.11400
C1904       C  0.24755115  0.88974449  0.83354897    -0.09800
H1905       H  0.28612460  0.85130951  0.83176986     0.08100
H1906       H  0.32209159  0.86513789  0.84678384     0.11800
H1907       H  0.26362006  0.91079672  0.84483720     0.11600
H1908       H  0.22684660  0.89683514  0.82998727     0.08100
C1909       C  0.88038462  0.85446885  0.81382636    -0.11000
C1910       C  0.87759450  0.85247095  0.82683270     0.06200
C1911       C  0.89484476  0.83905383  0.83257176    -0.09700
C1912       C  0.91164528  0.82700253  0.82534423    -0.11400
C1913       C  0.91178554  0.82818892  0.81228617    -0.01200
C1914       C  0.89720528  0.84241375  0.80662865    -0.10300
C1915       C  0.85425153  0.86316467  0.83416910     0.06200
H1916       H  0.89310689  0.83702550  0.84252976     0.08100
H1917       H  0.92176005  0.81582749  0.82987525     0.11600
H1918       H  0.89618445  0.84332973  0.79655534     0.11800
H1919       H  0.86794555  0.86483369  0.80911898     0.08100
C1920       C  0.82345720  0.86743135  0.82917338    -0.11000
C1921       C  0.80066992  0.87665193  0.83621751    -0.10300
C1922       C  0.80819217  0.88196455  0.84838716    -0.01200
C1923       C  0.83891921  0.87778333  0.85340259    -0.11400
C1924       C  0.86161214  0.86841572  0.84640342    -0.09800
H1925       H  0.81660504  0.86327787  0.81990402     0.08100
H1926       H  0.77714493  0.87962245  0.83213598     0.11800
H1927       H  0.84530683  0.88161892  0.86279719     0.11600
H1928       H  0.88502230  0.86536967  0.85055217     0.08100
C1929       C  0.01510033  0.83249112  0.79180249    -0.11000
C1930       C  0.04051438  0.82156399  0.79564220     0.06200
C1931       C  0.03241535  0.80624090  0.80166507    -0.09700
C1932       C  0.99970982  0.80157229  0.80328759    -0.11400
C1933       C  0.97437884  0.81224530  0.79914558    -0.01200
C1934       C  0.98228118  0.82794618  0.79367510    -0.10300
C1935       C  0.07523419  0.82535599  0.79254636     0.06200
H1936       H  0.05141118  0.79748476  0.80457801     0.08100
H1937       H  0.99403142  0.78932169  0.80739828     0.11600
H1938       H  0.96307384  0.83621353  0.79025427     0.11800
H1939       H  0.02067091  0.84436450  0.78712932     0.08100
C1940       C  0.08407914  0.82938061  0.78024134    -0.11000
C1941       C  0.11697527  0.83123553  0.77696980    -0.10300
C1942       C  0.14188463  0.82924806  0.78591418    -0.01200
C1943       C  0.13302287  0.82585280  0.79831786    -0.11400
C1944       C  0.10003204  0.82379078  0.80158245    -0.09800
H1945       H  0.06558876  0.83047961  0.77305477     0.08100
H1946       H  0.12311962  0.83396644  0.76734351     0.11800
H1947       H  0.15156490  0.82406543  0.80537256     0.11600
H1948       H  0.09386495  0.82069546  0.81114191     0.08100
C1949       C  0.15190114  0.74602945  0.74710730    -0.11000
C1950       C  0.17109701  0.76052215  0.74448953     0.06200
C1951       C  0.19783299  0.75870239  0.73636313    -0.09700
C1952       C  0.20608533  0.74281201  0.73145078    -0.11400
C1953       C  0.18781358  0.72825994  0.73443482    -0.01200
C1954       C  0.16018169  0.73000111  0.74208924    -0.10300
C1955       C  0.16606262  0.77713710  0.75104206     0.06200
H1956       H  0.21371412  0.76940912  0.73435962     0.08100
H1957       H  0.22791063  0.74169444  0.72580076     0.11600
H1958       H  0.14615110  0.71886716  0.74470890     0.11800
H1959       H  0.13116135  0.74700105  0.75333491     0.08100
C1960       C  0.16042982  0.77768728  0.76400383    -0.11000
C1961       C  0.16396108  0.79302496  0.77064481    -0.10300
C1962       C  0.17334435  0.80799941  0.76443466    -0.01200
C1963       C  0.17592478  0.80777393  0.75138138    -0.11400
C1964       C  0.17201916  0.79256213  0.74474533    -0.09800
H1965       H  0.15601408  0.76605515  0.76916386     0.08100
H1966       H  0.16232478  0.79283486  0.78072439     0.11800
H1967       H  0.18322576  0.81915869  0.74639567     0.11600
H1968       H  0.17586475  0.79267281  0.73475022     0.08100
C1969       C  0.03769888  0.70683931  0.70339913    -0.11000
C1970       C  0.05308998  0.69742273  0.71291381     0.06200
C1971       C  0.03328652  0.68951791  0.72198879    -0.09700
C1972       C  0.99926859  0.69193670  0.72198443    -0.11400
C1973       C  0.98447077  0.70233746  0.71296291    -0.01200
C1974       C  0.00380407  0.70927472  0.70344886    -0.10300
C1975       C  0.08957798  0.69715716  0.71397840     0.06200
H1976       H  0.04422071  0.68221078  0.72946827     0.08100
H1977       H  0.98466209  0.68628712  0.72931199     0.11600
H1978       H  0.99272248  0.71729758  0.69639692     0.11800
H1979       H  0.05201732  0.71281089  0.69613004     0.08100
C1980       C  0.10644198  0.68243091  0.71784817    -0.11000
C1981       C  0.14026085  0.68290222  0.72006352    -0.10300
C1982       C  0.15798870  0.69812715  0.71857966    -0.01200
C1983       C  0.14146746  0.71257288  0.71407935    -0.11400
C1984       C  0.10774764  0.71211956  0.71184559    -0.09800
H1985       H  0.09335070  0.67064194  0.71943998     0.08100
H1986       H  0.15229298  0.67159414  0.72359711     0.11800
H1987       H  0.15448107  0.72442580  0.71269025     0.11600
H1988       H  0.09566279  0.72375189  0.70897199     0.08100
C1989       C  0.96453075  0.75945237  0.74037277    -0.11000
C1990       C  0.97243605  0.75133990  0.75168954     0.06200
C1991       C  0.97722477  0.73353717  0.75157695    -0.09700
C1992       C  0.97045611  0.72394499  0.74083730    -0.11400
C1993       C  0.95953476  0.73200863  0.72992588    -0.01200
C1994       C  0.95829520  0.74989118  0.72963595    -0.10300
C1995       C  0.96985313  0.76098094  0.76369509     0.06200
H1996       H  0.98394550  0.72685204  0.76003612     0.08100
H1997       H  0.97071946  0.71020946  0.74149354     0.11600
H1998       H  0.94966491  0.75642089  0.72135256     0.11800
H1999       H  0.96021826  0.77304585  0.74000622     0.08100
C2000       C  0.97690429  0.77855757  0.76429367    -0.11000
C2001       C  0.96673934  0.78836497  0.77451906    -0.10300
C2002       C  0.94971315  0.78074985  0.78441578    -0.01200
C2003       C  0.94531471  0.76301541  0.78435509    -0.11400
C2004       C  0.95523159  0.75324144  0.77414185    -0.09800
H2005       H  0.98864359  0.78493723  0.75654858     0.08100
H2006       H  0.97003484  0.80204471  0.77420968     0.11800
H2007       H  0.93222124  0.75684389  0.79188295     0.11600
H2008       H  0.94894898  0.73984870  0.77407122     0.08100
C2009       C  0.20360554  0.34818862  0.84245203    -0.11000
C2010       C  0.22987708  0.35533370  0.83577514     0.06200
C2011       C  0.23360325  0.37321369  0.83607401    -0.09700
C2012       C  0.21174591  0.38354880  0.84290154    -0.11400
C2013       C  0.18549004  0.37623774  0.84949891    -0.01200
C2014       C  0.18190878  0.35844398  0.84919386    -0.10300
C2015       C  0.25192933  0.34396813  0.82820873     0.06200
H2016       H  0.25355265  0.37921604  0.83110313     0.08100
H2017       H  0.21532086  0.39721689  0.84299543     0.11600
H2018       H  0.16203235  0.35235219  0.85415379     0.11800
H2019       H  0.19922555  0.33459389  0.84225738     0.08100
C2020       C  0.25932847  0.32738183  0.83239655    -0.11000
C2021       C  0.27403328  0.31546023  0.82444476    -0.10300
C2022       C  0.28213666  0.31973428  0.81211114    -0.01200
C2023       C  0.27756150  0.33668938  0.80822404    -0.11400
C2024       C  0.26282670  0.34872051  0.81622183    -0.09800
H2025       H  0.25213669  0.32329038  0.84163169     0.08100
H2026       H  0.27650740  0.30238837  0.82760249     0.11800
H2027       H  0.28245058  0.34021308  0.79865271     0.11600
H2028       H  0.25753773  0.36132545  0.81261479     0.08100
C2029       C  0.59744194  0.35927836  0.80900667    -0.11000
C2030       C  0.60708136  0.35032192  0.81975136     0.06200
C2031       C  0.59880622  0.33295849  0.82074593    -0.09700
C2032       C  0.58329766  0.32450454  0.81083507    -0.11400
C2033       C  0.57586006  0.33322847  0.79975936    -0.01200
C2034       C  0.58224715  0.35078890  0.79908323    -0.10300
C2035       C  0.62868889  0.35866595  0.82914447     0.06200
H2036       H  0.60585048  0.32574394  0.82892276     0.08100
H2037       H  0.57983272  0.31082757  0.81139471     0.11600
H2038       H  0.57790142  0.35762401  0.79047182     0.11800
H2039       H  0.60388646  0.37258902  0.80787115     0.08100
C2040       C  0.62236860  0.37534294  0.83330797    -0.11000
C2041       C  0.64450540  0.38377071  0.84116134    -0.10300
C2042       C  0.67373703  0.37579807  0.84486885    -0.01200
C2043       C  0.67973799  0.35900436  0.84092868    -0.11400
C2044       C  0.65739650  0.35049454  0.83321400    -0.09800
H2045       H  0.60041088  0.38194005  0.83036231     0.08100
H2046       H  0.63910914  0.39667333  0.84409618     0.11800
H2047       H  0.70197588  0.35250408  0.84367743     0.11600
H2048       H  0.66317212  0.33774271  0.83004071     0.08100
C2049       C  0.47019774  0.30959492  0.80254053    -0.11000
C2050       C  0.44625522  0.31534280  0.79405626     0.06200
C2051       C  0.45658254  0.32212682  0.78257903    -0.09700
C2052       C  0.48970625  0.32227667  0.77938611    -0.11400
C2053       C  0.51339315  0.31590528  0.78762943    -0.01200
C2054       C  0.50350643  0.30997857  0.79938203    -0.10300
C2055       C  0.41068487  0.31253821  0.79640547     0.06200
H2056       H  0.43890439  0.32647395  0.77577277     0.08100
H2057       H  0.49692044  0.32696560  0.77028802     0.11600
H2058       H  0.52135131  0.30495331  0.80585181     0.11800
H2059       H  0.46305780  0.30438095  0.81149191     0.08100
C2060       C  0.39980371  0.29669933  0.80090681    -0.11000
C2061       C  0.36645589  0.29281701  0.80121655    -0.10300
C2062       C  0.34312532  0.30474621  0.79723193    -0.01200
C2063       C  0.35363864  0.32091835  0.79336229    -0.11400
C2064       C  0.38713933  0.32476490  0.79288399    -0.09800
H2065       H  0.41717221  0.28691559  0.80353678     0.08100
H2066       H  0.35877630  0.28026849  0.80420159     0.11800
H2067       H  0.33604884  0.33023830  0.79013860     0.11600
H2068       H  0.39469830  0.33710679  0.78942576     0.08100
C2069       C  0.31730222  0.24828016  0.76900141    -0.11000
C2070       C  0.33255057  0.25608017  0.75874676     0.06200
C2071       C  0.34186444  0.27333221  0.75984848    -0.09700
C2072       C  0.33373599  0.28284363  0.77055876    -0.11400
C2073       C  0.31580277  0.27533038  0.78028353    -0.01200
C2074       C  0.30894897  0.25777526  0.77958199    -0.10300
C2075       C  0.33354948  0.24693430  0.74648841     0.06200
H2076       H  0.35380894  0.27968896  0.75214053     0.08100
H2077       H  0.33907984  0.29637067  0.77075396     0.11600
H2078       H  0.29513037  0.25161463  0.78691201     0.11800
H2079       H  0.30941068  0.23511068  0.76846957     0.08100
C2080       C  0.34091442  0.22939017  0.74582505    -0.11000
C2081       C  0.33371015  0.21992949  0.73502561    -0.10300
C2082       C  0.31862834  0.22778752  0.72476372    -0.01200
C2083       C  0.31380228  0.24551694  0.72503455    -0.11400
C2084       C  0.32150511  0.25502006  0.73571429    -0.09800
H2085       H  0.35029554  0.22278530  0.75393797     0.08100
H2086       H  0.33704425  0.20623063  0.73514837     0.11800
H2087       H  0.30162712  0.25180437  0.71732821     0.11600
H2088       H  0.31516009  0.26842069  0.73591423     0.08100
C2089       C  0.46298395  0.18689766  0.71708375    -0.11000
C2090       C  0.44911227  0.19254340  0.70581937     0.06200
C2091       C  0.47013486  0.19796354  0.69619238    -0.09700
C2092       C  0.50414795  0.19836234  0.69800689    -0.11400
C2093       C  0.51759465  0.19365054  0.70954915    -0.01200
C2094       C  0.49677326  0.18759148  0.71894705    -0.10300
C2095       C  0.41291510  0.19439431  0.70477254     0.06200
H2096       H  0.46016135  0.20234078  0.68739260     0.08100
H2097       H  0.51979383  0.20320591  0.69068776     0.11600
H2098       H  0.50672621  0.18398667  0.72793712     0.11800
H2099       H  0.44755038  0.18285322  0.72472566     0.08100
C2100       C  0.39172829  0.18161852  0.70923263    -0.11000
C2101       C  0.35788598  0.18445149  0.70984547    -0.10300
C2102       C  0.34473185  0.20021137  0.70625361    -0.01200
C2103       C  0.36563696  0.21273632  0.70139648    -0.11400
C2104       C  0.39931324  0.20980448  0.70053391    -0.09800
H2105       H  0.40146185  0.16961085  0.71254146     0.08100
H2106       H  0.34215123  0.17469628  0.71368879     0.11800
H2107       H  0.35587980  0.22498673  0.69861167     0.11600
H2108       H  0.41492243  0.21996348  0.69719264     0.08100
C2109       C  0.54071365  0.23281852  0.75025524    -0.11000
C2110       C  0.52625475  0.24723259  0.74472849     0.06200
C2111       C  0.51734745  0.24627535  0.73202699    -0.09700
C2112       C  0.52565129  0.23195765  0.72478911    -0.11400
C2113       C  0.54318510  0.21840009  0.73010960    -0.01200
C2114       C  0.54925861  0.21864513  0.74300939    -0.10300
C2115       C  0.52585555  0.26385252  0.75162188     0.06200
H2116       H  0.50579736  0.25704776  0.72750252     0.08100
H2117       H  0.52102987  0.23218436  0.71484404     0.11600
H2118       H  0.56300613  0.20840401  0.74730216     0.11800
H2119       H  0.54818366  0.23306201  0.75994687     0.08100
C2120       C  0.51976085  0.26460631  0.76456495    -0.11000
C2121       C  0.52663458  0.27947488  0.77141275    -0.10300
C2122       C  0.54004447  0.29379775  0.76546757    -0.01200
C2123       C  0.54368432  0.29349527  0.75243771    -0.11400
C2124       C  0.53654910  0.27876716  0.74559333    -0.09800
H2125       H  0.51131571  0.25340841  0.76950317     0.08100
H2126       H  0.52406257  0.27926465  0.78146449     0.11800
H2127       H  0.55423907  0.30432796  0.74763563     0.11600
H2128       H  0.54197106  0.27868102  0.73570912     0.08100
C2129       C  0.26594661  0.66800255  0.17397101    -0.11000
C2130       C  0.24764519  0.65567488  0.18043028     0.06200
C2131       C  0.24654218  0.65640587  0.19352556    -0.09700
C2132       C  0.26115799  0.66994868  0.19994719    -0.11400
C2133       C  0.27687377  0.68307725  0.19339401    -0.01200
C2134       C  0.28012658  0.68170997  0.18040155    -0.10300
C2135       C  0.22599398  0.64376389  0.17348371     0.06200
H2136       H  0.23262397  0.64706378  0.19872838     0.08100
H2137       H  0.25750237  0.67102867  0.20992432     0.11600
H2138       H  0.29116569  0.69198435  0.17513785     0.11800
H2139       H  0.26686000  0.66785374  0.16387294     0.08100
C2140       C  0.23761060  0.63416459  0.16333064    -0.11000
C2141       C  0.21607465  0.62425411  0.15615625    -0.10300
C2142       C  0.18243944  0.62414027  0.15882983    -0.01200
C2143       C  0.17101014  0.63348125  0.16911817    -0.11400
C2144       C  0.19256148  0.64305992  0.17642328    -0.09800
H2145       H  0.26325589  0.63451202  0.16086777     0.08100
H2146       H  0.22552197  0.61716754  0.14827486     0.11800
H2147       H  0.14525198  0.63358432  0.17141965     0.11600
H2148       H  0.18285801  0.65049274  0.18408933     0.08100
C2149       C  0.59254870  0.66407680  0.18408036    -0.11000
C2150       C  0.60239339  0.64721002  0.18659030     0.06200
C2151       C  0.59198528  0.63961603  0.19778781    -0.09700
C2152       C  0.57521090  0.64915632  0.20679534    -0.11400
C2153       C  0.56826189  0.66647078  0.20479833    -0.01200
C2154       C  0.57573208  0.67363611  0.19313592    -0.10300
C2155       C  0.62633960  0.63824875  0.17832717     0.06200
H2156       H  0.59861315  0.62656515  0.19991291     0.08100
H2157       H  0.57032643  0.64344175  0.21579786     0.11600
H2158       H  0.57154930  0.68708938  0.19151014     0.11800
H2159       H  0.60022260  0.67032922  0.17557291     0.08100
C2160       C  0.62348252  0.63872875  0.16525473    -0.11000
C2161       C  0.64669673  0.63060095  0.15764232    -0.10300
C2162       C  0.67367071  0.62210568  0.16291848    -0.01200
C2163       C  0.67673961  0.62179318  0.17596596    -0.11400
C2164       C  0.65328840  0.62965715  0.18357033    -0.09800
H2165       H  0.60309597  0.64525024  0.16091947     0.08100
H2166       H  0.64368735  0.63107257  0.14761556     0.11800
H2167       H  0.69719413  0.61534401  0.18031640     0.11600
H2168       H  0.65659625  0.62930212  0.19358559     0.08100
C2169       C  0.46201985  0.69507810  0.20174022    -0.11000
C2170       C  0.43872636  0.68793214  0.20988982     0.06200
C2171       C  0.44981367  0.67873866  0.22032161    -0.09700
C2172       C  0.48323631  0.67789068  0.22305013    -0.11400
C2173       C  0.50615144  0.68595397  0.21531179    -0.01200
C2174       C  0.49546863  0.69404693  0.20442105    -0.10300
C2175       C  0.40332250  0.69190735  0.20839063     0.06200
H2176       H  0.43258839  0.67317850  0.22680668     0.08100
H2177       H  0.49123795  0.67160599  0.23151350     0.11600
H2178       H  0.51288166  0.70034504  0.19838934     0.11800
H2179       H  0.45425587  0.70205111  0.19354443     0.08100
C2180       C  0.39375870  0.70867809  0.20562140    -0.11000
C2181       C  0.36079688  0.71311417  0.20509924    -0.10300
C2182       C  0.33636782  0.70092372  0.20727867    -0.01200
C2183       C  0.34562573  0.68404058  0.20984078    -0.11400
C2184       C  0.37887285  0.67958064  0.21049467    -0.09800
H2185       H  0.41185501  0.71855784  0.20420389     0.08100
H2186       H  0.35424425  0.72617851  0.20303073     0.11800
H2187       H  0.32721231  0.67444212  0.21163035     0.11600
H2188       H  0.38549059  0.66656282  0.21268012     0.08100
C2189       C  0.29590087  0.74786588  0.26768356    -0.11000
C2190       C  0.31228132  0.75613306  0.25788951     0.06200
C2191       C  0.32255354  0.77310188  0.25964727    -0.09700
C2192       C  0.31471375  0.78193069  0.27064434    -0.11400
C2193       C  0.29620278  0.77396546  0.27999257    -0.01200
C2194       C  0.28781431  0.75671153  0.27856507    -0.10300
C2195       C  0.31423315  0.74776539  0.24543473     0.06200
H2196       H  0.33528889  0.77978093  0.25226374     0.08100
H2197       H  0.32094386  0.79530194  0.27142095     0.11600
H2198       H  0.27321804  0.75034700  0.28559020     0.11800
H2199       H  0.28720107  0.73491585  0.26657893     0.08100
C2200       C  0.32140271  0.73027535  0.24434013    -0.11000
C2201       C  0.31656088  0.72170093  0.23300922    -0.10300
C2202       C  0.30416600  0.73044635  0.22259982    -0.01200
C2203       C  0.29918429  0.74813031  0.22345751    -0.11400
C2204       C  0.30429771  0.75672094  0.23472643    -0.09800
H2205       H  0.32921188  0.72305037  0.25242878     0.08100
H2206       H  0.32011565  0.70804155  0.23267518     0.11800
H2207       H  0.28949978  0.75515710  0.21557423     0.11600
H2208       H  0.29815949  0.77012682  0.23527806     0.08100
C2209       C  0.44193619  0.81786479  0.28604036    -0.11000
C2210       C  0.43114948  0.80911053  0.29671193     0.06200
C2211       C  0.45467736  0.80170847  0.30464757    -0.09700
C2212       C  0.48814895  0.80270897  0.30177028    -0.11400
C2213       C  0.49851871  0.81073194  0.29076087    -0.01200
C2214       C  0.47518385  0.81848694  0.28303495    -0.10300
C2215       C  0.39541934  0.80648496  0.29872482     0.06200
H2216       H  0.44710772  0.79488889  0.31294261     0.08100
H2217       H  0.50582116  0.79659745  0.30779941     0.11600
H2218       H  0.48276755  0.82468926  0.27449248     0.11800
H2219       H  0.42447863  0.82351491  0.27967292     0.08100
C2220       C  0.37311936  0.82000351  0.29716835    -0.11000
C2221       C  0.33931425  0.81698685  0.29712016    -0.10300
C2222       C  0.32714184  0.80037286  0.29848675    -0.01200
C2223       C  0.34933140  0.78698202  0.30057166    -0.11400
C2224       C  0.38306492  0.79000948  0.30078291    -0.09800
H2225       H  0.38191382  0.83284065  0.29560387     0.08100
H2226       H  0.32279966  0.82747959  0.29539897     0.11800
H2227       H  0.34048253  0.77407594  0.30172059     0.11600
H2228       H  0.39954296  0.77931355  0.30189540     0.08100
C2229       C  0.52873338  0.77336144  0.24869568    -0.11000
C2230       C  0.51511238  0.75893879  0.25448859     0.06200
C2231       C  0.50453008  0.76052574  0.26696579    -0.09700
C2232       C  0.51035023  0.77553148  0.27380134    -0.11400
C2233       C  0.52688417  0.78928188  0.26830440    -0.01200
C2234       C  0.53449492  0.78831177  0.25551006    -0.10300
C2235       C  0.51654700  0.74187629  0.24815962     0.06200
H2236       H  0.49344163  0.74979466  0.27168030     0.08100
H2237       H  0.50454108  0.77573453  0.28364059     0.11600
H2238       H  0.54727145  0.79869728  0.25099937     0.11800
H2239       H  0.53741546  0.77269963  0.23916670     0.08100
C2240       C  0.51221816  0.74016205  0.23515046    -0.11000
C2241       C  0.51982477  0.72476962  0.22904301    -0.10300
C2242       C  0.53220012  0.71084925  0.23580162    -0.01200
C2243       C  0.53438062  0.71218470  0.24884283    -0.11400
C2244       C  0.52652106  0.72742538  0.25494713    -0.09800
H2245       H  0.50435528  0.75095002  0.22961788     0.08100
H2246       H  0.51848405  0.72421972  0.21896355     0.11800
H2247       H  0.54421502  0.70171514  0.25426175     0.11600
H2248       H  0.53064462  0.72821559  0.26490342     0.08100
C2249       C  0.90377862  0.84204944  0.49200577    -0.11000
C2250       C  0.92216735  0.84893093  0.50187142     0.06200
C2251       C  0.90611287  0.85829719  0.51121895    -0.09700
C2252       C  0.87215570  0.86010456  0.51099855    -0.11400
C2253       C  0.85374916  0.85282260  0.50131227    -0.01200
C2254       C  0.86988148  0.84408197  0.49168584    -0.10300
C2255       C  0.95777589  0.84572557  0.50271005     0.06200
H2256       H  0.91969972  0.86366206  0.51895516     0.08100
H2257       H  0.86023454  0.86689810  0.51852734     0.11600
H2258       H  0.85618458  0.83829793  0.48413871     0.11800
H2259       H  0.91561652  0.83494276  0.48461571     0.08100
C2260       C  0.97028851  0.82925330  0.50071548    -0.11000
C2261       C  0.00379453  0.82608503  0.50176304    -0.10300
C2262       C  0.02544976  0.83936600  0.50469698    -0.01200
C2263       C  0.01292906  0.85582714  0.50673236    -0.11400
C2264       C  0.97940035  0.85896105  0.50579780    -0.09800
H2265       H  0.95407601  0.81877631  0.49850073     0.08100
H2266       H  0.01278819  0.81328538  0.50014651     0.11800
H2267       H  0.02908637  0.86631275  0.50898861     0.11600
H2268       H  0.97039475  0.87178499  0.50732837     0.08100
C2269       C  0.64496555  0.84981801  0.33492696    -0.11000
C2270       C  0.61567641  0.85726698  0.33067149     0.06200
C2271       C  0.60896075  0.87422621  0.33417069    -0.09700
C2272       C  0.63093942  0.88347925  0.34162967    -0.11400
C2273       C  0.66043074  0.87610100  0.34565349    -0.01200
C2274       C  0.66707709  0.85912948  0.34226572    -0.10300
C2275       C  0.59338133  0.84770828  0.32202495     0.06200
H2276       H  0.58661769  0.88035477  0.33115244     0.08100
H2277       H  0.62501979  0.89649740  0.34412643     0.11600
H2278       H  0.68949351  0.85303961  0.34526577     0.11800
H2279       H  0.65128972  0.83690313  0.33228843     0.08100
C2280       C  0.57948492  0.85587329  0.31159714    -0.11000
C2281       C  0.56319891  0.84645740  0.30235668    -0.10300
C2282       C  0.56006211  0.82867735  0.30335142    -0.01200
C2283       C  0.57151043  0.82068569  0.31423178    -0.11400
C2284       C  0.58799600  0.83006895  0.32346415    -0.09800
H2285       H  0.58338392  0.86937185  0.31006620     0.08100
H2286       H  0.55576754  0.85284009  0.29385799     0.11800
H2287       H  0.57042411  0.80692365  0.31504678     0.11600
H2288       H  0.59793872  0.82337111  0.33143543     0.08100
C2289       C  0.68912160  0.89534525  0.42570540    -0.11000
C2290       C  0.70114891  0.87956429  0.42994985     0.06200
C2291       C  0.71310858  0.86784586  0.42111515    -0.09700
C2292       C  0.71450282  0.87208916  0.40847318    -0.11400
C2293       C  0.70409865  0.88816502  0.40432359    -0.01200
C2294       C  0.69058268  0.89960998  0.41300961    -0.10300
C2295       C  0.70372369  0.87567181  0.44353299     0.06200
H2296       H  0.72292537  0.85567148  0.42403371     0.08100
H2297       H  0.72506585  0.86299981  0.40200380     0.11600
H2298       H  0.68215356  0.91205978  0.41005409     0.11800
H2299       H  0.67926348  0.90454441  0.43224486     0.08100
C2300       C  0.71438233  0.88818132  0.45204595    -0.11000
C2301       C  0.72099180  0.88393321  0.46450581    -0.10300
C2302       C  0.71701166  0.86710851  0.46870976    -0.01200
C2303       C  0.70505639  0.85478602  0.46034310    -0.11400
C2304       C  0.69841344  0.85902150  0.44792903    -0.09800
H2305       H  0.71911941  0.90107366  0.44894578     0.08100
H2306       H  0.73036530  0.89366409  0.47072008     0.11800
H2307       H  0.70167140  0.84171179  0.46330458     0.11600
H2308       H  0.68977498  0.84913502  0.44168483     0.08100
C2309       C  0.22017160  0.87038038  0.33763053    -0.11000
C2310       C  0.21475539  0.85278065  0.33610756     0.06200
C2311       C  0.18642974  0.84563668  0.34137820    -0.09700
C2312       C  0.16418175  0.85571432  0.34802308    -0.11400
C2313       C  0.16969808  0.87323218  0.34973114    -0.01200
C2314       C  0.19805997  0.88046995  0.34449232    -0.10300
C2315       C  0.23737125  0.84174851  0.32868364     0.06200
H2316       H  0.18114833  0.83220739  0.34017808     0.08100
H2317       H  0.14268369  0.84971836  0.35193011     0.11600
H2318       H  0.20305256  0.89392362  0.34565378     0.11800
H2319       H  0.24168804  0.87628168  0.33364324     0.08100
C2320       C  0.24746734  0.84653289  0.31663647    -0.11000
C2321       C  0.26191302  0.83453565  0.30859503    -0.10300
C2322       C  0.26717448  0.81767145  0.31255904    -0.01200
C2323       C  0.26015472  0.81343572  0.32498354    -0.11400
C2324       C  0.24541684  0.82530877  0.33295971    -0.09800
H2325       H  0.24147902  0.85906361  0.31303376     0.08100
H2326       H  0.26589800  0.83794971  0.29893642     0.11800
H2327       H  0.26306197  0.80038961  0.32815709     0.11600
H2328       H  0.23832253  0.82128888  0.34222131     0.08100
C2329       C  0.95303153  0.89244803  0.35748418    -0.11000
C2330       C  0.93369532  0.89615093  0.36799921     0.06200
C2331       C  0.94946999  0.90041732  0.37923938    -0.09700
C2332       C  0.98364212  0.90094770  0.37995868    -0.11400
C2333       C  0.00299439  0.89715236  0.36947072    -0.01200
C2334       C  0.98727715  0.89290551  0.35822080    -0.10300
C2335       C  0.89725462  0.89578831  0.36727728     0.06200
H2336       H  0.93531743  0.90361043  0.38745625     0.08100
H2337       H  0.99494019  0.90445029  0.38873433     0.11600
H2338       H  0.00147534  0.88994850  0.34997322     0.11800
H2339       H  0.94164159  0.88902243  0.34871367     0.08100
C2340       C  0.88063501  0.90326586  0.35716310    -0.11000
C2341       C  0.84637400  0.90377060  0.35687354    -0.10300
C2342       C  0.82795521  0.89677745  0.36667696    -0.01200
C2343       C  0.84452410  0.88886917  0.37660524    -0.11400
C2344       C  0.87872885  0.88839180  0.37690712    -0.09800
H2345       H  0.89417492  0.90918451  0.34964576     0.08100
H2346       H  0.83429787  0.91002072  0.34912604     0.11800
H2347       H  0.83101158  0.88324971  0.38425509     0.11600
H2348       H  0.89075499  0.88229618  0.38472894     0.08100
C2349       C  0.14381763  0.86255559  0.42213444    -0.11000
C2350       C  0.13852509  0.87312407  0.43256641     0.06200
C2351       C  0.12913779  0.89016327  0.43051064    -0.09700
C2352       C  0.12377007  0.89619129  0.41834916    -0.11400
C2353       C  0.12755355  0.88528425  0.40801884    -0.01200
C2354       C  0.13817113  0.86851452  0.41004581    -0.10300
C2355       C  0.14025043  0.86584097  0.44542386     0.06200
H2356       H  0.12464573  0.89864102  0.43831037     0.08100
H2357       H  0.11572813  0.90923160  0.41704994     0.11600
H2358       H  0.14173958  0.85988078  0.40226592     0.11800
H2359       H  0.15184091  0.84950555  0.42332148     0.08100
C2360       C  0.12848474  0.84927676  0.44758904    -0.11000
C2361       C  0.12847391  0.84233126  0.45955224    -0.10300
C2362       C  0.14008015  0.85173186  0.46977958    -0.01200
C2363       C  0.15241673  0.86822137  0.46771518    -0.11400
C2364       C  0.15239955  0.87524945  0.45563866    -0.09800
H2365       H  0.11826262  0.84176426  0.44006158     0.08100
H2366       H  0.11864144  0.82964301  0.46082202     0.11800
H2367       H  0.16137390  0.87579147  0.47544987     0.11600
H2368       H  0.16181716  0.88801357  0.45429828     0.08100
C2369       C  0.66161693  0.86246266  0.68088714    -0.11000
C2370       C  0.63221889  0.85665585  0.67551185     0.06200
C2371       C  0.62587731  0.86077430  0.66297191    -0.09700
C2372       C  0.64819135  0.87051314  0.65602826    -0.11400
C2373       C  0.67774264  0.87610912  0.66136250    -0.01200
C2374       C  0.68416278  0.87196979  0.67388480    -0.10300
C2375       C  0.60919316  0.84574521  0.68286969     0.06200
H2376       H  0.60353218  0.85652685  0.65854116     0.08100
H2377       H  0.64253807  0.87343857  0.64640042     0.11600
H2378       H  0.70669186  0.87603682  0.67826717     0.11800
H2379       H  0.66756847  0.85928957  0.69045023     0.08100
C2380       C  0.60238925  0.84947426  0.69545401    -0.11000
C2381       C  0.58544364  0.83780667  0.70296942    -0.10300
C2382       C  0.57519102  0.82207106  0.69811850    -0.01200
C2383       C  0.57963450  0.81890300  0.68531625    -0.11400
C2384       C  0.59615660  0.83068011  0.67773304    -0.09800
H2385       H  0.61169712  0.86105354  0.69966658     0.08100
H2386       H  0.58326864  0.84033332  0.71286589     0.11800
H2387       H  0.57298961  0.80661930  0.68143539     0.11600
H2388       H  0.60103089  0.82734731  0.66810658     0.08100
C2389       C  0.72129999  0.90277748  0.58031006    -0.11000
C2390       C  0.72390942  0.88599006  0.57574860     0.06200
C2391       C  0.73024869  0.87279168  0.58431525    -0.09700
C2392       C  0.73373360  0.87622816  0.59705183    -0.11400
C2393       C  0.73108135  0.89295332  0.60159482    -0.01200
C2394       C  0.72482250  0.90621880  0.59309459    -0.10300
C2395       C  0.72112253  0.88212043  0.56212745     0.06200
H2396       H  0.73320681  0.85977770  0.58115023     0.08100
H2397       H  0.73882378  0.86575888  0.60334621     0.11600
H2398       H  0.72273408  0.91926026  0.59632438     0.11800
H2399       H  0.71626938  0.91325130  0.57401093     0.08100
C2400       C  0.70637279  0.86689663  0.55804641    -0.11000
C2401       C  0.70731863  0.86214341  0.54546266    -0.10300
C2402       C  0.72295211  0.87251927  0.53661409    -0.01200
C2403       C  0.73589213  0.88823942  0.54051526    -0.11400
C2404       C  0.73498474  0.89300275  0.55312828    -0.09800
H2405       H  0.69478017  0.85838821  0.56465359     0.08100
H2406       H  0.69709894  0.84995465  0.54275972     0.11800
H2407       H  0.74825210  0.89647396  0.53391940     0.11600
H2408       H  0.74669340  0.90477330  0.55590518     0.08100
C2409       C  0.26037540  0.85868087  0.69960093    -0.11000
C2410       C  0.25171039  0.85113797  0.68814990     0.06200
C2411       C  0.26141455  0.83419564  0.68587496    -0.09700
C2412       C  0.27613162  0.82452227  0.69533943    -0.11400
C2413       C  0.28184640  0.83166604  0.70715798    -0.01200
C2414       C  0.27516675  0.84902202  0.70901245    -0.10300
C2415       C  0.22925415  0.86015835  0.67936388     0.06200
H2416       H  0.25497967  0.82795100  0.67720613     0.08100
H2417       H  0.27986682  0.81099294  0.69383459     0.11600
H2418       H  0.27852925  0.85468033  0.71814758     0.11800
H2419       H  0.25381163  0.87178476  0.70157719     0.08100
C2420       C  0.20244576  0.86942390  0.68404782    -0.11000
C2421       C  0.18009919  0.87721241  0.67597274    -0.10300
C2422       C  0.18403359  0.87605959  0.66299399    -0.01200
C2423       C  0.21087114  0.86689715  0.65825240    -0.11400
C2424       C  0.23310125  0.85891750  0.66635030    -0.09800
H2425       H  0.19826727  0.87033840  0.69399534     0.08100
H2426       H  0.15972196  0.88419421  0.67990828     0.11800
H2427       H  0.21453757  0.86579914  0.64828382     0.11600
H2428       H  0.25342346  0.85187557  0.66243307     0.08100
C2429       C  0.96918656  0.87975311  0.64650719    -0.11000
C2430       C  0.94953551  0.89443973  0.64595970     0.06200
C2431       C  0.96481708  0.91045047  0.64508674    -0.09700
C2432       C  0.99888175  0.91173233  0.64454040    -0.11400
C2433       C  0.01854333  0.89704453  0.64496201    -0.01200
C2434       C  0.00335845  0.88105046  0.64611323    -0.10300
C2435       C  0.91322750  0.89322719  0.64626558     0.06200
H2436       H  0.95033385  0.92199189  0.64454990     0.08100
H2437       H  0.00983159  0.92423818  0.64362747     0.11600
H2438       H  0.01787319  0.86952001  0.64644679     0.11800
H2439       H  0.95809011  0.86726834  0.64730046     0.08100
C2440       C  0.89632934  0.88154656  0.63865154    -0.11000
C2441       C  0.86201910  0.88149823  0.63830496    -0.10300
C2442       C  0.84400394  0.89296045  0.64570802    -0.01200
C2443       C  0.86097251  0.90408770  0.65368355    -0.11400
C2444       C  0.89510733  0.90430340  0.65389136    -0.09800
H2445       H  0.90966904  0.87291427  0.63262053     0.08100
H2446       H  0.84962718  0.87285266  0.63199509     0.11800
H2447       H  0.84785174  0.91312579  0.65944940     0.11600
H2448       H  0.90741872  0.91330678  0.65994867     0.08100
C2449       C  0.15982731  0.87923140  0.58387701    -0.11000
C2450       C  0.13331470  0.87107087  0.57805812     0.06200
C2451       C  0.10387057  0.86938729  0.58473226    -0.09700
C2452       C  0.10135230  0.87517211  0.59703646    -0.11400
C2453       C  0.12806799  0.88295742  0.60294011    -0.01200
C2454       C  0.15722628  0.88512203  0.59619461    -0.10300
C2455       C  0.13643363  0.86360644  0.56531740     0.06200
H2456       H  0.08273754  0.86352912  0.58044292     0.08100
H2457       H  0.07840028  0.87356799  0.60192928     0.11600
H2458       H  0.17815445  0.89115744  0.60049897     0.11800
H2459       H  0.18287821  0.88064978  0.57903207     0.08100
C2460       C  0.15323890  0.87211443  0.55568418    -0.11000
C2461       C  0.15439400  0.86515356  0.54360389    -0.10300
C2462       C  0.13892115  0.84955303  0.54098816    -0.01200
C2463       C  0.12336876  0.84080338  0.55073786    -0.11400
C2464       C  0.12211779  0.84773247  0.56270943    -0.09800
H2465       H  0.16455604  0.88436247  0.55738885     0.08100
H2466       H  0.16657631  0.87218089  0.53625451     0.11800
H2467       H  0.11139310  0.82871402  0.54905654     0.11600
H2468       H  0.10973567  0.84061938  0.56996213     0.08100
C2469       C  0.00469205  0.17033710  0.50171183    -0.11000
C2470       C  0.99121745  0.15397034  0.50281255     0.06200
C2471       C  0.01165786  0.13964726  0.50198405    -0.09700
C2472       C  0.04528843  0.14172033  0.50035131    -0.11400
C2473       C  0.05876342  0.15814415  0.49936976    -0.01200
C2474       C  0.03814638  0.17240325  0.49993027    -0.10300
C2475       C  0.95568454  0.15204813  0.50442762     0.06200
H2476       H  0.00165184  0.12691250  0.50279584     0.08100
H2477       H  0.06075063  0.13052455  0.49999503     0.11600
H2478       H  0.04794412  0.18518914  0.49921309     0.11800
H2479       H  0.98923786  0.18153347  0.50212518     0.08100
C2480       C  0.93915232  0.16174082  0.51345024    -0.11000
C2481       C  0.90511808  0.16150338  0.51400754    -0.10300
C2482       C  0.88711905  0.15163139  0.50551053    -0.01200
C2483       C  0.90373940  0.14138620  0.49683016    -0.11400
C2484       C  0.93781036  0.14155374  0.49632422    -0.09800
H2485       H  0.95258790  0.16980802  0.51985647     0.08100
H2486       H  0.89286494  0.16947699  0.52081456     0.11800
H2487       H  0.89039388  0.13373132  0.49014153     0.11600
H2488       H  0.95014517  0.13409232  0.48923311     0.08100
C2489       C  0.63184517  0.12953557  0.66824417    -0.11000
C2490       C  0.63980453  0.14608926  0.67229534     0.06200
C2491       C  0.67134243  0.15233275  0.66968348    -0.09700
C2492       C  0.69409710  0.14244675  0.66308133    -0.11400
C2493       C  0.68594084  0.12606912  0.65879057    -0.01200
C2494       C  0.65454345  0.11969777  0.66149136    -0.10300
C2495       C  0.61603637  0.15684639  0.67948002     0.06200
H2496       H  0.67858570  0.16486387  0.67288113     0.08100
H2497       H  0.71804680  0.14772742  0.66121881     0.11600
H2498       H  0.64747067  0.10711938  0.65833327     0.11800
H2499       H  0.60785789  0.12430825  0.67011437     0.08100
C2500       C  0.59837367  0.15017083  0.68964305    -0.11000
C2501       C  0.58145637  0.16107213  0.69785947    -0.10300
C2502       C  0.58144592  0.17881011  0.69595235    -0.01200
C2503       C  0.59632646  0.18521461  0.68512482    -0.11400
C2504       C  0.61338708  0.17440809  0.67699408    -0.09800
H2505       H  0.59989738  0.13670925  0.69184908     0.08100
H2506       H  0.57116585  0.15584768  0.70632890     0.11800
H2507       H  0.59747781  0.19887239  0.68359405     0.11600
H2508       H  0.62616684  0.17994248  0.66914914     0.08100
C2509       C  0.71288650  0.01952400  0.63920540    -0.11000
C2510       C  0.73782795  0.01049312  0.64533349     0.06200
C2511       C  0.76278078  0.01970535  0.65132893    -0.09700
C2512       C  0.76341120  0.03753794  0.65084565    -0.11400
C2513       C  0.73936757  0.04650848  0.64419367    -0.01200
C2514       C  0.71378093  0.03734757  0.63856449    -0.10300
C2515       C  0.73886978  0.99155119  0.64487522     0.06200
H2516       H  0.78211660  0.01306781  0.65623529     0.08100
H2517       H  0.78343007  0.04426590  0.65525447     0.11600
H2518       H  0.69490092  0.04394519  0.63337881     0.11800
H2519       H  0.69344430  0.01276213  0.63445742     0.08100
C2520       C  0.71073361  0.98176394  0.64716013    -0.11000
C2521       C  0.71190547  0.96391597  0.64649137    -0.10300
C2522       C  0.74109051  0.95553976  0.64331350    -0.01200
C2523       C  0.76914663  0.96534495  0.64096693    -0.11400
C2524       C  0.76809144  0.98313007  0.64181194    -0.09800
H2525       H  0.68789867  0.98792905  0.64955766     0.08100
H2526       H  0.68989742  0.95667844  0.64829662     0.11800
H2527       H  0.79196820  0.95925610  0.63845689     0.11600
H2528       H  0.79003400  0.99034917  0.63982380     0.08100
C2529       C  0.73214065  0.14384368  0.55690016    -0.11000
C2530       C  0.74274616  0.12778489  0.56110801     0.06200
C2531       C  0.75787219  0.11671897  0.55251211    -0.09700
C2532       C  0.76345013  0.12188415  0.54018184    -0.11400
C2533       C  0.75394744  0.13819060  0.53616245    -0.01200
C2534       C  0.73766925  0.14898058  0.54458454    -0.10300
C2535       C  0.73964737  0.12298450  0.57452827     0.06200
H2536       H  0.76664849  0.10433489  0.55543689     0.08100
H2537       H  0.77618269  0.11332179  0.53391062     0.11600
H2538       H  0.73007089  0.16162798  0.54176425     0.11800
H2539       H  0.71990566  0.15257236  0.56318665     0.08100
C2540       C  0.74511853  0.13517213  0.58395911    -0.11000
C2541       C  0.74424653  0.13054095  0.59655974    -0.10300
C2542       C  0.73792783  0.11362384  0.60005025    -0.01200
C2543       C  0.73167620  0.10149714  0.59068143    -0.11400
C2544       C  0.73253060  0.10612405  0.57806712    -0.09800
H2545       H  0.75119140  0.14820107  0.58160200     0.08100
H2546       H  0.74942715  0.14013452  0.60357105     0.11800
H2547       H  0.72681217  0.08833743  0.59309324     0.11600
H2548       H  0.72779182  0.09645500  0.57107161     0.08100
C2549       C  0.24453642  0.13784496  0.66098496    -0.11000
C2550       C  0.23229002  0.14476249  0.67215192     0.06200
C2551       C  0.19993000  0.14090673  0.67558965    -0.09700
C2552       C  0.18034486  0.13044159  0.66808650    -0.11400
C2553       C  0.19256908  0.12346406  0.65695490    -0.01200
C2554       C  0.22497062  0.12721801  0.65350661    -0.10300
C2555       C  0.25256208  0.15616981  0.68022487     0.06200
H2556       H  0.18952500  0.14626250  0.68400860     0.08100
H2557       H  0.15542664  0.12795696  0.67095322     0.11600
H2558       H  0.23504908  0.12211145  0.64495348     0.11800
H2559       H  0.26935362  0.14055218  0.65808884     0.08100
C2560       C  0.27024424  0.16995164  0.67517493    -0.11000
C2561       C  0.28449611  0.18225947  0.68305038    -0.10300
C2562       C  0.28168687  0.18085633  0.69607396    -0.01200
C2563       C  0.26635353  0.16637977  0.70106294    -0.11400
C2564       C  0.25198873  0.15420229  0.69325451    -0.09800
H2565       H  0.27099761  0.17187706  0.66517896     0.08100
H2566       H  0.29524031  0.19358066  0.67897147     0.11800
H2567       H  0.26315460  0.16521847  0.71105821     0.11600
H2568       H  0.23897789  0.14362983  0.69744046     0.08100
C2569       C  0.97610682  0.09017094  0.62744606    -0.11000
C2570       C  0.95965899  0.10250638  0.63465639     0.06200
C2571       C  0.97866357  0.11436919  0.64139476    -0.09700
C2572       C  0.01297478  0.11383410  0.64093440    -0.11400
C2573       C  0.02909614  0.10152950  0.63364367    -0.01200
C2574       C  0.01022404  0.08977221  0.62688835    -0.10300
C2575       C  0.92298495  0.10271553  0.63515789     0.06200
H2576       H  0.96708823  0.12419505  0.64693945     0.08100
H2577       H  0.02687598  0.12305603  0.64626479     0.11600
H2578       H  0.02187214  0.08000698  0.62128916     0.11800
H2579       H  0.96268373  0.08051735  0.62237668     0.08100
C2580       C  0.90439766  0.09757962  0.62474308    -0.11000
C2581       C  0.87028111  0.09675749  0.62534009    -0.10300
C2582       C  0.85353908  0.10124828  0.63631019    -0.01200
C2583       C  0.87181459  0.10684257  0.64663224    -0.11400
C2584       C  0.90610126  0.10752560  0.64608140    -0.09800
H2585       H  0.91615958  0.09422345  0.61603612     0.08100
H2586       H  0.85695928  0.09258096  0.61715419     0.11800
H2587       H  0.85962505  0.11046070  0.65519984     0.11600
H2588       H  0.91935557  0.11140781  0.65434826     0.08100
C2589       C  0.11889606  0.01804723  0.64857993    -0.11000
C2590       C  0.14117785  0.00837292  0.64153082     0.06200
C2591       C  0.16385419  0.01694972  0.63395593    -0.09700
C2592       C  0.16374885  0.03474825  0.63317997    -0.11400
C2593       C  0.14099119  0.04441462  0.63997377    -0.01200
C2594       C  0.11875876  0.03589404  0.64778867    -0.10300
C2595       C  0.13982672  0.98941478  0.64151839     0.06200
H2596       H  0.18153524  0.00984453  0.62852166     0.08100
H2597       H  0.18114682  0.04094075  0.62707350     0.11600
H2598       H  0.10069199  0.04300161  0.65303124     0.11800
H2599       H  0.10087721  0.01178116  0.65438459     0.08100
C2600       C  0.13636921  0.98014891  0.65267465    -0.11000
C2601       C  0.13449437  0.96229080  0.65245557    -0.10300
C2602       C  0.13562035  0.95340684  0.64106271    -0.01200
C2603       C  0.13932938  0.96267731  0.62995218    -0.11400
C2604       C  0.14150517  0.98044601  0.63017990    -0.09800
H2605       H  0.13522363  0.98672438  0.66155704     0.08100
H2606       H  0.13154936  0.95546065  0.66116284     0.11800
H2607       H  0.14011076  0.95619674  0.62102821     0.11600
H2608       H  0.14374254  0.98722785  0.62142354     0.08100
C2609       C  0.15750297  0.11058839  0.57529970    -0.11000
C2610       C  0.15893116  0.12827054  0.57314194     0.06200
C2611       C  0.15597645  0.13936556  0.58342517    -0.09700
C2612       C  0.15097426  0.13298519  0.59546111    -0.11400
C2613       C  0.14905798  0.11535683  0.59755352    -0.01200
C2614       C  0.15271696  0.10421129  0.58737037    -0.10300
C2615       C  0.16218840  0.13517714  0.56021475     0.06200
H2616       H  0.15756834  0.15302756  0.58218964     0.08100
H2617       H  0.14848541  0.14188583  0.60314181     0.11600
H2618       H  0.15130416  0.09054476  0.58869990     0.11800
H2619       H  0.15921235  0.10165919  0.56762231     0.08100
C2620       C  0.18149561  0.12690540  0.55115006    -0.11000
C2621       C  0.18338300  0.13323358  0.53891791    -0.10300
C2622       C  0.16609981  0.14798471  0.53552658    -0.01200
C2623       C  0.14724581  0.15636359  0.54461617    -0.11400
C2624       C  0.14521993  0.15002780  0.55675727    -0.09800
H2625       H  0.19520935  0.11555234  0.55350614     0.08100
H2626       H  0.19800441  0.12649581  0.53209845     0.11800
H2627       H  0.13337199  0.16767825  0.54228245     0.11600
H2628       H  0.12958265  0.15657132  0.56335077     0.08100
C2629       C  0.71470919  0.98379693  0.37280510    -0.11000
C2630       C  0.72554747  0.99173476  0.36179023     0.06200
C2631       C  0.73689416  0.98139389  0.35195381    -0.09700
C2632       C  0.73708325  0.96359004  0.35309398    -0.11400
C2633       C  0.72582059  0.95575586  0.36406443    -0.01200
C2634       C  0.71477227  0.96605489  0.37391119    -0.10300
C2635       C  0.72556829  0.01070370  0.36079381     0.06200
H2636       H  0.74522635  0.98701922  0.34330707     0.08100
H2637       H  0.74590329  0.95596036  0.34537690     0.11600
H2638       H  0.70623750  0.96039804  0.38252103     0.11800
H2639       H  0.70662485  0.99129138  0.38070509     0.08100
C2640       C  0.70097960  0.02042987  0.36661284    -0.11000
C2641       C  0.70259218  0.03822239  0.36675913    -0.10300
C2642       C  0.72849385  0.04672180  0.36089482    -0.01200
C2643       C  0.75226297  0.03713196  0.35456634    -0.11400
C2644       C  0.75091689  0.01930694  0.35455765    -0.09800
H2645       H  0.68064972  0.01429148  0.37123546     0.08100
H2646       H  0.68391467  0.04531914  0.37168764     0.11800
H2647       H  0.77270458  0.04338112  0.35007381     0.11600
H2648       H  0.77046515  0.01229949  0.35010480     0.08100
C2649       C  0.74617633  0.10634488  0.42669688    -0.11000
C2650       C  0.74494842  0.12380774  0.42965040     0.06200
C2651       C  0.74129464  0.13567491  0.41991371    -0.09700
C2652       C  0.74012106  0.13030757  0.40751269    -0.11400
C2653       C  0.74217422  0.11294288  0.40453726    -0.01200
C2654       C  0.74473897  0.10095146  0.41423989    -0.10300
C2655       C  0.74956848  0.12986706  0.44268256     0.06200
H2656       H  0.73966302  0.14918211  0.42187935     0.08100
H2657       H  0.73786663  0.13980504  0.40022363     0.11600
H2658       H  0.74646751  0.08746205  0.41218129     0.11800
H2659       H  0.74934559  0.09690376  0.43397126     0.08100
C2660       C  0.73534996  0.12136216  0.45289790    -0.11000
C2661       C  0.74082742  0.12713308  0.46513064    -0.10300
C2662       C  0.76071822  0.14141950  0.46731669    -0.01200
C2663       C  0.77455094  0.14994684  0.45709032    -0.11400
C2664       C  0.76911259  0.14423671  0.44496337    -0.09800
H2665       H  0.71998000  0.11032540  0.45142299     0.08100
H2666       H  0.72991446  0.12031008  0.47286073     0.11800
H2667       H  0.79010089  0.16094593  0.45845931     0.11600
H2668       H  0.78095470  0.15089839  0.43735806     0.08100
C2669       C  0.97026920  0.10466195  0.35220253    -0.11000
C2670       C  0.95250447  0.10481065  0.36347068     0.06200
C2671       C  0.97005064  0.10490451  0.37476062    -0.09700
C2672       C  0.00412859  0.10405225  0.37484040    -0.11400
C2673       C  0.02187209  0.10326616  0.36364028    -0.01200
C2674       C  0.00463596  0.10392307  0.35228956    -0.10300
C2675       C  0.91596521  0.10405074  0.36365830     0.06200
H2676       H  0.95740339  0.10550009  0.38361854     0.08100
H2677       H  0.01661846  0.10382418  0.38374784     0.11600
H2678       H  0.01764320  0.10341105  0.34350309     0.11800
H2679       H  0.95762242  0.10452838  0.34333259     0.08100
C2680       C  0.89670213  0.11288409  0.35487066    -0.11000
C2681       C  0.86238951  0.11215756  0.35540683    -0.10300
C2682       C  0.84671999  0.10247918  0.36467283    -0.01200
C2683       C  0.86596230  0.09354419  0.37332559    -0.11400
C2684       C  0.89999049  0.09430534  0.37282602    -0.09800
H2685       H  0.90812158  0.12056700  0.34771225     0.08100
H2686       H  0.84814740  0.11910349  0.34857170     0.11800
H2687       H  0.85468101  0.08589768  0.38054686     0.11600
H2688       H  0.91382875  0.08700490  0.37957932     0.08100
C2689       C  0.14729991  0.97947586  0.37110000    -0.11000
C2690       C  0.12367967  0.98919808  0.36475204     0.06200
C2691       C  0.09728923  0.98068476  0.35908569    -0.09700
C2692       C  0.09447403  0.96290736  0.35984644    -0.11400
C2693       C  0.11792467  0.95327552  0.36632495    -0.01200
C2694       C  0.14440231  0.96173862  0.37190273    -0.10300
C2695       C  0.12599779  0.00816381  0.36440542     0.06200
H2696       H  0.07838990  0.98781376  0.35431555     0.08100
H2697       H  0.07357160  0.95673575  0.35559907     0.11600
H2698       H  0.16284744  0.95463662  0.37695292     0.11800
H2699       H  0.16810138  0.98559620  0.37545034     0.08100
C2700       C  0.13534878  0.01729872  0.37511936    -0.11000
C2701       C  0.13608003  0.03512196  0.37504804    -0.10300
C2702       C  0.12752980  0.04429306  0.36426603    -0.01200
C2703       C  0.11895376  0.03521308  0.35344233    -0.11400
C2704       C  0.11813255  0.01733195  0.35352035    -0.09800
H2705       H  0.14123564  0.01067504  0.38369297     0.08100
H2706       H  0.14279992  0.04174607  0.38354278     0.11800
H2707       H  0.11242936  0.04193245  0.34497523     0.11600
H2708       H  0.11129825  0.01066163  0.34506101     0.08100
C2709       C  0.17202890  0.12239902  0.44893966    -0.11000
C2710       C  0.16612493  0.13351263  0.43886342     0.06200
C2711       C  0.16481569  0.15113142  0.44120236    -0.09700
C2712       C  0.16745500  0.15744235  0.45333869    -0.11400
C2713       C  0.17174990  0.14632849  0.46347264    -0.01200
C2714       C  0.17487150  0.12877077  0.46114737    -0.10300
C2715       C  0.15969221  0.12692931  0.42603952     0.06200
H2716       H  0.16110092  0.16007411  0.43363450     0.08100
H2717       H  0.16523180  0.17105486  0.45483364     0.11600
H2718       H  0.17795871  0.11991040  0.46881431     0.11800
H2719       H  0.17304203  0.10876019  0.44745742     0.08100
C2720       C  0.17796247  0.11340104  0.42096652    -0.11000
C2721       C  0.17188223  0.10762324  0.40878130    -0.10300
C2722       C  0.14747716  0.11529691  0.40143724    -0.01200
C2723       C  0.12902058  0.12864798  0.40656852    -0.11400
C2724       C  0.13494487  0.13434415  0.41871282    -0.09800
H2725       H  0.19725905  0.10746438  0.42634727     0.08100
H2726       H  0.18636954  0.09723413  0.40507923     0.11800
H2727       H  0.10966024  0.13461249  0.40122211     0.11600
H2728       H  0.11987841  0.14449363  0.42242258     0.08100
C2729       C  0.77761232  0.27518198  0.50777704    -0.11000
C2730       C  0.75514021  0.26456962  0.50154610     0.06200
C2731       C  0.72819733  0.27217382  0.49557297    -0.09700
C2732       C  0.72393587  0.28987147  0.49582357    -0.11400
C2733       C  0.74654323  0.30039364  0.50199011    -0.01200
C2734       C  0.77344696  0.29287611  0.50794983    -0.10300
C2735       C  0.76000666  0.24571409  0.50122314     0.06200
H2736       H  0.71062361  0.26450032  0.49054421     0.08100
H2737       H  0.70285337  0.29532653  0.49118040     0.11600
H2738       H  0.79108698  0.30065724  0.51286802     0.11800
H2739       H  0.79828583  0.26981464  0.51271966     0.08100
C2740       C  0.79171716  0.23882401  0.50069779    -0.11000
C2741       C  0.79657439  0.22120730  0.50071660    -0.10300
C2742       C  0.76990562  0.20999081  0.50112674    -0.01200
C2743       C  0.73814985  0.21674307  0.50141128    -0.11400
C2744       C  0.73325192  0.23442543  0.50150903    -0.09800
H2745       H  0.81287854  0.24702647  0.50016434     0.08100
H2746       H  0.82136547  0.21636257  0.50041013     0.11800
H2747       H  0.71716704  0.20837344  0.50175700     0.11600
H2748       H  0.70848289  0.23922013  0.50207250     0.08100
C2749       C  0.21243005  0.24084661  0.50448044    -0.11000
C2750       C  0.24552405  0.24145001  0.50098970     0.06200
C2751       C  0.26074158  0.22630428  0.49698436    -0.09700
C2752       C  0.24344064  0.21091965  0.49660394    -0.11400
C2753       C  0.21045435  0.21035517  0.50013978    -0.01200
C2754       C  0.19509180  0.22547664  0.50403090    -0.10300
C2755       C  0.26427818  0.25771711  0.50172190     0.06200
H2756       H  0.28605547  0.22636729  0.49404278     0.08100
H2757       H  0.25579639  0.19949179  0.49346260     0.11600
H2758       H  0.16969295  0.22539254  0.50687329     0.11800
H2759       H  0.20009389  0.25219648  0.50776553     0.08100
C2760       C  0.25013124  0.27331705  0.49810115    -0.11000
C2761       C  0.26802724  0.28853841  0.49878939    -0.10300
C2762       C  0.30047700  0.28846576  0.50308674    -0.01200
C2763       C  0.31451412  0.27291270  0.50675784    -0.11400
C2764       C  0.29665134  0.25774458  0.50611286    -0.09800
H2765       H  0.22534776  0.27372281  0.49455848     0.08100
H2766       H  0.25661171  0.30032309  0.49585109     0.11800
H2767       H  0.33938842  0.27246387  0.51020722     0.11600
H2768       H  0.30809461  0.24604088  0.50918978     0.08100
C2769       C  0.50397380  0.35675081  0.50729834    -0.11000
C2770       C  0.52476178  0.34255255  0.50624138     0.06200
C2771       C  0.51088505  0.32622057  0.50518232    -0.09700
C2772       C  0.47700311  0.32410667  0.50526102    -0.11400
C2773       C  0.45630007  0.33828829  0.50636314    -0.01200
C2774       C  0.47008607  0.35463230  0.50736600    -0.10300
C2775       C  0.56077059  0.34472477  0.50634554     0.06200
H2776       H  0.52624284  0.31505856  0.50414235     0.08100
H2777       H  0.46700888  0.31139026  0.50438192     0.11600
H2778       H  0.45466550  0.36580318  0.50820402     0.11800
H2779       H  0.51390138  0.36947351  0.50826408     0.08100
C2780       C  0.57548643  0.35837579  0.49997872    -0.11000
C2781       C  0.60941485  0.36022203  0.49995284    -0.10300
C2782       C  0.62922033  0.34855673  0.50638062    -0.01200
C2783       C  0.61462672  0.33504409  0.51286704    -0.11400
C2784       C  0.58073051  0.33310378  0.51281041    -0.09800
H2785       H  0.56081794  0.36743851  0.49481209     0.08100
H2786       H  0.62018189  0.37075262  0.49487598     0.11800
H2787       H  0.62945772  0.32583548  0.51784291     0.11600
H2788       H  0.57010769  0.32259206  0.51793589     0.08100
C2789       C  0.24222354  0.36267424  0.66411953    -0.11000
C2790       C  0.25005049  0.35860856  0.67655273     0.06200
C2791       C  0.28056727  0.36391952  0.68125437    -0.09700
C2792       C  0.30258873  0.37300089  0.67374652    -0.11400
C2793       C  0.29469055  0.37706699  0.66134018    -0.01200
C2794       C  0.26420616  0.37181960  0.65662865    -0.10300
C2795       C  0.22751928  0.34808738  0.68442443     0.06200
H2796       H  0.28779892  0.36069966  0.69067939     0.08100
H2797       H  0.32593657  0.37674050  0.67763816     0.11600
H2798       H  0.25737022  0.37472550  0.64710549     0.11800
H2799       H  0.21899367  0.35884085  0.66018407     0.08100
C2800       C  0.21154222  0.33373848  0.67938963    -0.11000
C2801       C  0.19551699  0.32206936  0.68719531    -0.10300
C2802       C  0.19478999  0.32455251  0.70016089    -0.01200
C2803       C  0.20817036  0.33961863  0.70507142    -0.11400
C2804       C  0.22424394  0.35128774  0.69729374    -0.09800
H2805       H  0.21369521  0.33076746  0.66956402     0.08100
H2806       H  0.18648358  0.31025755  0.68323730     0.11800
H2807       H  0.20883862  0.34158005  0.71507284     0.11600
H2808       H  0.23572544  0.36235086  0.70146871     0.08100
C2809       C  0.32182659  0.38462592  0.58217783    -0.11000
C2810       C  0.34189436  0.37138436  0.57778923     0.06200
C2811       C  0.36571934  0.36455869  0.58583101    -0.09700
C2812       C  0.36927974  0.37075154  0.59800732    -0.11400
C2813       C  0.34896314  0.38384576  0.60244714    -0.01200
C2814       C  0.32523390  0.39073814  0.59439747    -0.10300
C2815       C  0.33820208  0.36462844  0.56489182     0.06200
H2816       H  0.38188749  0.35452816  0.58264120     0.08100
H2817       H  0.38795584  0.36528817  0.60395015     0.11600
H2818       H  0.30928150  0.40088725  0.59754722     0.11800
H2819       H  0.30318819  0.39007182  0.57621692     0.08100
C2820       C  0.33908717  0.34696910  0.56273322    -0.11000
C2821       C  0.33842740  0.34052040  0.55058269    -0.10300
C2822       C  0.33677570  0.35157645  0.54030070    -0.01200
C2823       C  0.33435919  0.36920959  0.54242234    -0.11400
C2824       C  0.33506917  0.37568843  0.55462329    -0.09800
H2825       H  0.34084887  0.33813237  0.57046502     0.08100
H2826       H  0.34010372  0.32686879  0.54922000     0.11800
H2827       H  0.33335281  0.37801358  0.53465293     0.11600
H2828       H  0.33448293  0.38935942  0.55600457     0.08100
C2829       C  0.82039372  0.37921542  0.68560408    -0.11000
C2830       C  0.84340424  0.36732706  0.68107523     0.06200
C2831       C  0.84367667  0.36389594  0.66817145    -0.09700
C2832       C  0.82188731  0.37220862  0.66006785    -0.11400
C2833       C  0.79927062  0.38420542  0.66463044    -0.01200
C2834       C  0.79876068  0.38756456  0.67749986    -0.10300
C2835       C  0.86594048  0.35820687  0.68990990     0.06200
H2836       H  0.86101969  0.35493100  0.66427903     0.08100
H2837       H  0.82293980  0.36934415  0.65019429     0.11600
H2838       H  0.78153067  0.39664765  0.68133399     0.11800
H2839       H  0.81863775  0.38190571  0.69548401     0.08100
C2840       C  0.87743999  0.36636759  0.70077116    -0.11000
C2841       C  0.89352583  0.35713805  0.71012723    -0.10300
C2842       C  0.89910412  0.33957534  0.70880359    -0.01200
C2843       C  0.89032013  0.33167213  0.69753440    -0.11400
C2844       C  0.87399453  0.34087325  0.68816349    -0.09800
H2845       H  0.87255873  0.37976621  0.70235940     0.08100
H2846       H  0.89918484  0.36342436  0.71886442     0.11800
H2847       H  0.89323131  0.31800640  0.69646703     0.11600
H2848       H  0.86548632  0.33405502  0.68001175     0.08100
C2849       C  0.58365067  0.40762030  0.63179271    -0.11000
C2850       C  0.56767269  0.39939273  0.64173443     0.06200
C2851       C  0.58703038  0.39137082  0.65090243    -0.09700
C2852       C  0.62135261  0.39245094  0.65048337    -0.11400
C2853       C  0.63699580  0.40153539  0.64087994    -0.01200
C2854       C  0.61770455  0.40874194  0.63140802    -0.10300
C2855       C  0.53113081  0.40004895  0.64266303     0.06200
H2856       H  0.57568411  0.38485478  0.65866818     0.08100
H2857       H  0.63557514  0.38661646  0.65785455     0.11600
H2858       H  0.62893074  0.41558749  0.62375801     0.11800
H2859       H  0.56977668  0.41344907  0.62432539     0.08100
C2860       C  0.51429559  0.41482950  0.63888838    -0.11000
C2861       C  0.48019065  0.41548429  0.63900119    -0.10300
C2862       C  0.46169180  0.40140783  0.64292776    -0.01200
C2863       C  0.47827419  0.38683219  0.64723206    -0.11400
C2864       C  0.51265267  0.38615866  0.64711356    -0.09800
H2865       H  0.52751484  0.42599717  0.63578695     0.08100
H2866       H  0.46826134  0.42699482  0.63576909     0.11800
H2867       H  0.46468013  0.37581214  0.65038872     0.11600
H2868       H  0.52468024  0.37458116  0.65013401     0.08100
C2869       C  0.76135019  0.40744596  0.58111390    -0.11000
C2870       C  0.76062409  0.39035076  0.57714935     0.06200
C2871       C  0.75850379  0.37744467  0.58620782    -0.09700
C2872       C  0.75612931  0.38153690  0.59890121    -0.11400
C2873       C  0.75634151  0.39861965  0.60286531    -0.01200
C2874       C  0.75954555  0.41153652  0.59384995    -0.10300
C2875       C  0.76021641  0.38589646  0.56362859     0.06200
H2876       H  0.75753968  0.36418165  0.58343320     0.08100
H2877       H  0.75362563  0.37130897  0.60561476     0.11600
H2878       H  0.75968261  0.42481437  0.59661461     0.11800
H2879       H  0.76308739  0.41764960  0.57433897     0.08100
C2880       C  0.73838705  0.39407239  0.55545787    -0.11000
C2881       C  0.73538701  0.38867067  0.54304350    -0.10300
C2882       C  0.75435754  0.37507430  0.53848063    -0.01200
C2883       C  0.77723782  0.36740000  0.54649112    -0.11400
C2884       C  0.78000971  0.37269678  0.55894964    -0.09800
H2885       H  0.72261124  0.40416164  0.55882237     0.08100
H2886       H  0.71737433  0.39476883  0.53712882     0.11800
H2887       H  0.79215393  0.35688599  0.54325859     0.11600
H2888       H  0.79722014  0.36626258  0.56501146     0.08100
C2889       C  0.33976424  0.38655758  0.42757538    -0.11000
C2890       C  0.35981479  0.37355473  0.43235461     0.06200
C2891       C  0.38523399  0.36719056  0.42481807    -0.09700
C2892       C  0.39012345  0.37345599  0.41275316    -0.11400
C2893       C  0.36981832  0.38627700  0.40794185    -0.01200
C2894       C  0.34470853  0.39285101  0.41549668    -0.10300
C2895       C  0.35429081  0.36643353  0.44506630     0.06200
H2896       H  0.40155108  0.35741880  0.42828309     0.08100
H2897       H  0.40979529  0.36822048  0.40717409     0.11600
H2898       H  0.32866157  0.40273418  0.41202026     0.11800
H2899       H  0.31981269  0.39164196  0.43307940     0.08100
C2900       C  0.34595089  0.37701945  0.45521281    -0.11000
C2901       C  0.34288952  0.37022847  0.46727073    -0.10300
C2902       C  0.34827910  0.35277966  0.46938294    -0.01200
C2903       C  0.35549651  0.34217131  0.45919845    -0.11400
C2904       C  0.35826267  0.34888385  0.44719828    -0.09800
H2905       H  0.34290150  0.39060743  0.45390704     0.08100
H2906       H  0.33753140  0.37870835  0.47499478     0.11800
H2907       H  0.35950235  0.32864918  0.46054160     0.11600
H2908       H  0.36384870  0.34029314  0.43956944     0.08100
C2909       C  0.60544319  0.40068865  0.35322427    -0.11000
C2910       C  0.58704962  0.39595020  0.36373396     0.06200
C2911       C  0.60351266  0.39122942  0.37469078    -0.09700
C2912       C  0.63768400  0.39167869  0.37525311    -0.11400
C2913       C  0.65621113  0.39655746  0.36479504    -0.01200
C2914       C  0.63973195  0.40081811  0.35370527    -0.10300
C2915       C  0.55079179  0.39670767  0.36356353     0.06200
H2916       H  0.58985647  0.38768080  0.38293993     0.08100
H2917       H  0.64961706  0.38839225  0.38394371     0.11600
H2918       H  0.65330712  0.40469982  0.34552262     0.11800
H2919       H  0.59323266  0.40437920  0.34467270     0.08100
C2920       C  0.53475778  0.41217589  0.36111043    -0.11000
C2921       C  0.50068777  0.41333953  0.36202225    -0.10300
C2922       C  0.48188570  0.39897042  0.36516723    -0.01200
C2923       C  0.49787458  0.38334759  0.36720229    -0.11400
C2924       C  0.53203744  0.38227734  0.36655095    -0.09800
H2925       H  0.54872908  0.42350113  0.35889367     0.08100
H2926       H  0.48906143  0.42555623  0.36042205     0.11800
H2927       H  0.48404447  0.37208180  0.36967858     0.11600
H2928       H  0.54389795  0.37021594  0.36848312     0.08100
C2929       C  0.77264276  0.37371438  0.42337594    -0.11000
C2930       C  0.77113394  0.38703882  0.43214473     0.06200
C2931       C  0.77063481  0.40396086  0.42779971    -0.09700
C2932       C  0.77080664  0.40742252  0.41496983    -0.11400
C2933       C  0.77137377  0.39401799  0.40624988    -0.01200
C2934       C  0.77283469  0.37716810  0.41059521    -0.10300
C2935       C  0.76874055  0.38308736  0.44569991     0.06200
H2936       H  0.76985486  0.41451289  0.43432686     0.08100
H2937       H  0.76977161  0.42055180  0.41187256     0.11600
H2938       H  0.77311643  0.36658096  0.40409713     0.11800
H2939       H  0.77255990  0.36054318  0.42638623     0.08100
C2940       C  0.74678152  0.39201484  0.45340234    -0.11000
C2941       C  0.74237306  0.38718800  0.46586934    -0.10300
C2942       C  0.75980725  0.37335058  0.47089162    -0.01200
C2943       C  0.78247808  0.36478370  0.46331991    -0.11400
C2944       C  0.78694911  0.36962604  0.45087901    -0.09800
H2945       H  0.73206018  0.40227204  0.44966434     0.08100
H2946       H  0.72440495  0.39389066  0.47144224     0.11800
H2947       H  0.79614221  0.35404007  0.46691496     0.11600
H2948       H  0.80434460  0.36263927  0.44524041     0.08100
C2949       C  0.75647061  0.73391254  0.50352685    -0.11000
C2950       C  0.73005750  0.74451873  0.50676680     0.06200
C2951       C  0.70000047  0.73700139  0.50985608    -0.09700
C2952       C  0.69645788  0.71932672  0.50978040    -0.11400
C2953       C  0.72286258  0.70873416  0.50665267    -0.01200
C2954       C  0.75290702  0.71616355  0.50346255    -0.10300
C2955       C  0.73360115  0.76335371  0.50690069     0.06200
H2956       H  0.67931600  0.74477628  0.51253852     0.08100
H2957       H  0.67298157  0.71393897  0.51227878     0.11600
H2958       H  0.77359412  0.70827276  0.50095245     0.11800
H2959       H  0.77980858  0.73934674  0.50091229     0.08100
C2960       C  0.76227880  0.77102728  0.51144791    -0.11000
C2961       C  0.76564636  0.78876339  0.51137760    -0.10300
C2962       C  0.74033220  0.79915141  0.50685802    -0.01200
C2963       C  0.71148792  0.79153523  0.50251614    -0.11400
C2964       C  0.70821706  0.77382331  0.50248918    -0.09800
H2965       H  0.78201763  0.76332631  0.51510619     0.08100
H2966       H  0.78813687  0.79435363  0.51481697     0.11800
H2967       H  0.69175124  0.79925321  0.49887448     0.11600
H2968       H  0.68598661  0.76830654  0.49876283     0.08100
C2969       C  0.27176602  0.74111641  0.50512511    -0.11000
C2970       C  0.23750429  0.74044547  0.50614896     0.06200
C2971       C  0.22269111  0.72451588  0.50829120    -0.09700
C2972       C  0.24165050  0.70972531  0.50957113    -0.11400
C2973       C  0.27586781  0.71054837  0.50879953    -0.01200
C2974       C  0.29066922  0.72638284  0.50650434    -0.10300
C2975       C  0.21759823  0.75639606  0.50548703     0.06200
H2976       H  0.19643468  0.72350503  0.50928212     0.08100
H2977       H  0.22957555  0.69768656  0.51127849     0.11600
H2978       H  0.31698463  0.72739096  0.50568591     0.11800
H2979       H  0.28404440  0.75303611  0.50321064     0.08100
C2980       C  0.22957869  0.77166544  0.51065152    -0.11000
C2981       C  0.21092981  0.78659273  0.51035251    -0.10300
C2982       C  0.17959577  0.78661235  0.50504969    -0.01200
C2983       C  0.16737583  0.77142479  0.49989619    -0.11400
C2984       C  0.18628276  0.75649577  0.50001520    -0.09800
H2985       H  0.25320527  0.77205311  0.51518380     0.08100
H2986       H  0.22081212  0.79807289  0.51448528     0.11800
H2987       H  0.14336220  0.77114095  0.49565296     0.11600
H2988       H  0.17644419  0.74508105  0.49577255     0.08100
C2989       C  0.55643252  0.65140015  0.51715219    -0.11000
C2990       C  0.53945975  0.65922502  0.50730427     0.06200
C2991       C  0.55716007  0.66549089  0.49705948    -0.09700
C2992       C  0.59121199  0.66394688  0.49668126    -0.11400
C2993       C  0.60817876  0.65628660  0.50661356    -0.01200
C2994       C  0.59045039  0.65001234  0.51683320    -0.10300
C2995       C  0.50338003  0.66077264  0.50775924     0.06200
H2996       H  0.54460016  0.67145869  0.48930697     0.08100
H2997       H  0.60429329  0.66895093  0.48870477     0.11600
H2998       H  0.60292194  0.64416281  0.52465882     0.11800
H2999       H  0.54338022  0.64661647  0.52520470     0.08100
C3000       C  0.48411446  0.64665290  0.51102364    -0.11000
C3001       C  0.45010169  0.64806002  0.51153041    -0.10300
C3002       C  0.43469888  0.66367943  0.50896159    -0.01200
C3003       C  0.45394198  0.67783657  0.50576470    -0.11400
C3004       C  0.48797199  0.67635914  0.50507742    -0.09800
H3005       H  0.49538727  0.63447367  0.51304674     0.08100
H3006       H  0.43585634  0.63693405  0.51401495     0.11800
H3007       H  0.44267240  0.69000726  0.50372853     0.11600
H3008       H  0.50232110  0.68747089  0.50263480     0.08100
C3009       C  0.24953786  0.64771702  0.70802388    -0.11000
C3010       C  0.25014725  0.65203353  0.69529925     0.06200
C3011       C  0.23297765  0.66673370  0.69145337    -0.09700
C3012       C  0.21794962  0.67752327  0.70027224    -0.11400
C3013       C  0.21970580  0.67378774  0.71307780    -0.01200
C3014       C  0.23459087  0.65842992  0.71676579    -0.10300
C3015       C  0.27088331  0.64201620  0.68638458     0.06200
H3016       H  0.23305856  0.67050693  0.68174640     0.08100
H3017       H  0.20741507  0.68947580  0.69717412     0.11600
H3018       H  0.23663572  0.65530112  0.72657531     0.11800
H3019       H  0.26186353  0.63634816  0.71132176     0.08100
C3020       C  0.30205827  0.63625800  0.69006173    -0.11000
C3021       C  0.32229614  0.62740486  0.68173995    -0.10300
C3022       C  0.31205993  0.62407709  0.66947402    -0.01200
C3023       C  0.28078355  0.62960752  0.66578104    -0.11400
C3024       C  0.26046718  0.63850828  0.67412828    -0.09800
H3025       H  0.31121844  0.63895431  0.69932969     0.08100
H3026       H  0.34625068  0.62338714  0.68487083     0.11800
H3027       H  0.27210035  0.62715410  0.65640572     0.11600
H3028       H  0.23656083  0.64260202  0.67100535     0.08100
C3029       C  0.34092114  0.52048002  0.65245876    -0.11000
C3030       C  0.35310022  0.51097377  0.64231777     0.06200
C3031       C  0.36925472  0.51973819  0.63266857    -0.09700
C3032       C  0.37331542  0.53743967  0.63318367    -0.11400
C3033       C  0.36145853  0.54686242  0.64337910    -0.01200
C3034       C  0.34507322  0.53820792  0.65298317    -0.10300
C3035       C  0.34965950  0.49200478  0.64190372     0.06200
H3036       H  0.37943899  0.51287791  0.62480215     0.08100
H3037       H  0.38603639  0.54374466  0.62562960     0.11600
H3038       H  0.33548900  0.54514448  0.66092415     0.11800
H3039       H  0.32792414  0.51423652  0.65996554     0.08100
C3040       C  0.35245383  0.48218825  0.65285386    -0.11000
C3041       C  0.35095957  0.46435208  0.65237527    -0.10300
C3042       C  0.34684217  0.45588553  0.64093555    -0.01200
C3043       C  0.34322163  0.46564725  0.63002829    -0.11400
C3044       C  0.34451796  0.48347192  0.63050780    -0.09800
H3045       H  0.35688802  0.48825192  0.66177178     0.08100
H3046       H  0.35411693  0.45716378  0.66091851     0.11800
H3047       H  0.33999099  0.45948362  0.62106292     0.11600
H3048       H  0.34164228  0.49057115  0.62191136     0.08100
C3049       C  0.32168760  0.61656726  0.58952595    -0.11000
C3050       C  0.34238984  0.62853981  0.58380968     0.06200
C3051       C  0.37022144  0.63410252  0.59037579    -0.09700
C3052       C  0.37684109  0.62813432  0.60241424    -0.11400
C3053       C  0.35581826  0.61645604  0.60822008    -0.01200
C3054       C  0.32828099  0.61062249  0.60161574    -0.10300
C3055       C  0.33499812  0.63554407  0.57116745     0.06200
H3056       H  0.38702408  0.64306065  0.58616637     0.08100
H3057       H  0.39840911  0.63274854  0.60721286     0.11600
H3058       H  0.31166916  0.60157894  0.60584265     0.11800
H3059       H  0.29998045  0.61208596  0.58475654     0.08100
C3060       C  0.32404301  0.62498462  0.56137957    -0.11000
C3061       C  0.31945160  0.63161141  0.54931492    -0.10300
C3062       C  0.32568467  0.64890934  0.54682711    -0.01200
C3063       C  0.33529453  0.65953631  0.55673015    -0.11400
C3064       C  0.33984041  0.65295748  0.56872061    -0.09800
H3065       H  0.32020155  0.61150614  0.56294049     0.08100
H3066       H  0.31226850  0.62308230  0.54185128     0.11800
H3067       H  0.34013936  0.67292545  0.55514552     0.11600
H3068       H  0.34755836  0.66152146  0.57608532     0.08100
C3069       C  0.83752948  0.64483222  0.68415087    -0.11000
C3070       C  0.86453649  0.65203007  0.67793198     0.06200
C3071       C  0.86772212  0.64915357  0.66502483    -0.09700
C3072       C  0.84441640  0.63956532  0.65850868    -0.11400
C3073       C  0.81718179  0.63269449  0.66469945    -0.01200
C3074       C  0.81409416  0.63532936  0.67760381    -0.10300
C3075       C  0.88775897  0.66350011  0.68471448     0.06200
H3076       H  0.88823589  0.65435479  0.65992470     0.08100
H3077       H  0.84746791  0.63774802  0.64856302     0.11600
H3078       H  0.79340791  0.63016027  0.68262463     0.11800
H3079       H  0.83386583  0.64700528  0.69402341     0.08100
C3080       C  0.89622173  0.66049311  0.69727304    -0.11000
C3081       C  0.91316267  0.67284259  0.70420993    -0.10300
C3082       C  0.92200057  0.68840119  0.69871514    -0.01200
C3083       C  0.91598410  0.69082521  0.68595452    -0.11400
C3084       C  0.89921229  0.67851191  0.67900645    -0.09800
H3085       H  0.88829709  0.64896272  0.70192585     0.08100
H3086       H  0.91666240  0.67090165  0.71412052     0.11800
H3087       H  0.92166469  0.70295622  0.68162465     0.11600
H3088       H  0.89296467  0.68141893  0.66943326     0.08100
C3089       C  0.59839386  0.60289457  0.66205289    -0.11000
C3090       C  0.57919771  0.61358586  0.65445101     0.06200
C3091       C  0.59524265  0.62475172  0.64620461    -0.09700
C3092       C  0.62942328  0.62458559  0.64515244    -0.11400
C3093       C  0.64840764  0.61336476  0.65238879    -0.01200
C3094       C  0.63251875  0.60276962  0.66102623    -0.10300
C3095       C  0.54276236  0.61192654  0.65432146     0.06200
H3096       H  0.58131015  0.63304148  0.64012690     0.08100
H3097       H  0.64093587  0.63286699  0.63836849     0.11600
H3098       H  0.64641044  0.59397442  0.66673162     0.11800
H3099       H  0.58693413  0.59430978  0.66863818     0.08100
C3100       C  0.52835635  0.59566459  0.65478613    -0.11000
C3101       C  0.49452954  0.59365161  0.65367685    -0.10300
C3102       C  0.47397856  0.60782608  0.65204694    -0.01200
C3103       C  0.48809274  0.62418988  0.65194761    -0.11400
C3104       C  0.52213564  0.62621990  0.65304428    -0.09800
H3105       H  0.54337670  0.58434916  0.65555085     0.08100
H3106       H  0.48453465  0.58087746  0.65375842     0.11800
H3107       H  0.47290095  0.63538276  0.65076485     0.11600
H3108       H  0.53234955  0.63894670  0.65277684     0.08100
C3109       C  0.73425766  0.52579112  0.63925299    -0.11000
C3110       C  0.75728922  0.51730448  0.64669537     0.06200
C3111       C  0.78028721  0.52693668  0.65342751    -0.09700
C3112       C  0.77941738  0.54482468  0.65302544    -0.11400
C3113       C  0.75581136  0.55325490  0.64575054    -0.01200
C3114       C  0.73358556  0.54353208  0.63875604    -0.10300
C3115       C  0.75615158  0.49846158  0.64756711     0.06200
H3116       H  0.79827869  0.52063468  0.65922949     0.08100
H3117       H  0.79690951  0.55203878  0.65847481     0.11600
H3118       H  0.71528912  0.54965058  0.63298281     0.11800
H3119       H  0.71659957  0.51864084  0.63383567     0.08100
C3120       C  0.72628586  0.49033258  0.65000061    -0.11000
C3121       C  0.72389581  0.47258529  0.64963414    -0.10300
C3122       C  0.75123557  0.46254647  0.64666393    -0.01200
C3123       C  0.78146601  0.47063032  0.64467989    -0.11400
C3124       C  0.78394866  0.48846285  0.64521232    -0.09800
H3125       H  0.70458943  0.49777914  0.65196533     0.08100
H3126       H  0.70030250  0.46674726  0.65125712     0.11800
H3127       H  0.80295309  0.46319847  0.64240775     0.11600
H3128       H  0.80722830  0.49447207  0.64327859     0.08100
C3129       C  0.74832988  0.63952667  0.59034818    -0.11000
C3130       C  0.75513600  0.62707365  0.58123587     0.06200
C3131       C  0.76367410  0.61056017  0.58523853    -0.09700
C3132       C  0.76452133  0.60652123  0.59797086    -0.11400
C3133       C  0.75685339  0.61890292  0.60699009    -0.01200
C3134       C  0.74922663  0.63548906  0.60304825    -0.10300
C3135       C  0.75213997  0.63121942  0.56766857     0.06200
H3136       H  0.76959838  0.60070874  0.57852310     0.08100
H3137       H  0.77053716  0.59361514  0.60074569     0.11600
H3138       H  0.74315987  0.64529383  0.60979152     0.11800
H3139       H  0.74120149  0.65230136  0.58767885     0.08100
C3140       C  0.73953266  0.61920396  0.55915255    -0.11000
C3141       C  0.73469254  0.62350165  0.54658858    -0.10300
C3142       C  0.74217533  0.63993013  0.54224849    -0.01200
C3143       C  0.75549919  0.65180426  0.55065664    -0.11400
C3144       C  0.76053877  0.64749215  0.56317730    -0.09800
H3145       H  0.73227379  0.60664348  0.56227445     0.08100
H3146       H  0.72401303  0.61414533  0.54036441     0.11800
H3147       H  0.76144289  0.66459541  0.54760541     0.11600
H3148       H  0.77083197  0.65700240  0.56936944     0.08100
C3149       C  0.33881936  0.52063790  0.36568717    -0.11000
C3150       C  0.35979744  0.51119868  0.37345325     0.06200
C3151       C  0.37954490  0.51997842  0.38206189    -0.09700
C3152       C  0.37832871  0.53774466  0.38290353    -0.11400
C3153       C  0.35734440  0.54717237  0.37516123    -0.01200
C3154       C  0.33756145  0.53845652  0.36654924    -0.10300
C3155       C  0.36099650  0.49225922  0.37274109     0.06200
H3156       H  0.39629753  0.51310067  0.38805163     0.08100
H3157       H  0.39408669  0.54412200  0.38955828     0.11600
H3158       H  0.32118727  0.54541355  0.36045986     0.11800
H3159       H  0.32309403  0.51421949  0.35905649     0.08100
C3160       C  0.36236118  0.48254828  0.38373321    -0.11000
C3161       C  0.36464118  0.46480008  0.38320576    -0.10300
C3162       C  0.36565511  0.45627238  0.37167645    -0.01200
C3163       C  0.36370557  0.46589555  0.36064392    -0.11400
C3164       C  0.36134996  0.48373869  0.36117262    -0.09800
H3165       H  0.36160820  0.48869371  0.39278035     0.08100
H3166       H  0.36594657  0.45774449  0.39187292     0.11800
H3167       H  0.36461007  0.45966893  0.35162991     0.11600
H3168       H  0.36060077  0.49089555  0.35254418     0.08100
C3169       C  0.34936062  0.63818698  0.42892864    -0.11000
C3170       C  0.33135091  0.62840703  0.43751775     0.06200
C3171       C  0.31917310  0.61247546  0.43362020    -0.09700
C3172       C  0.32457176  0.60661538  0.42142436    -0.11400
C3173       C  0.34209000  0.61659944  0.41284360    -0.01200
C3174       C  0.35449291  0.63240019  0.41675043    -0.10300
C3175       C  0.32567241  0.63486457  0.45045739     0.06200
H3176       H  0.30501249  0.60464086  0.43992728     0.08100
H3177       H  0.31477749  0.59434578  0.41867272     0.11600
H3178       H  0.36844494  0.64028029  0.41039681     0.11800
H3179       H  0.35989353  0.65028747  0.43164706     0.08100
C3180       C  0.32599287  0.62373300  0.46076848    -0.11000
C3181       C  0.32296800  0.63005825  0.47295375    -0.10300
C3182       C  0.31998186  0.64764150  0.47509964    -0.01200
C3183       C  0.31846093  0.65871082  0.46482046    -0.11400
C3184       C  0.32100592  0.65239569  0.45265679    -0.09800
H3185       H  0.32986619  0.61020005  0.45947322     0.08100
H3186       H  0.32458056  0.62127142  0.48072723     0.11800
H3187       H  0.31600543  0.67234035  0.46620307     0.11600
H3188       H  0.31976175  0.66132205  0.44496442     0.08100
C3189       C  0.58496579  0.61838930  0.36744813    -0.11000
C3190       C  0.56508243  0.60376147  0.36790315     0.06200
C3191       C  0.58034843  0.58772838  0.36887689    -0.09700
C3192       C  0.61446051  0.58637265  0.36954210    -0.11400
C3193       C  0.63429494  0.60099727  0.36915799    -0.01200
C3194       C  0.61914812  0.61701433  0.36799548    -0.10300
C3195       C  0.52861558  0.60514064  0.36773308     0.06200
H3196       H  0.56584605  0.57620836  0.36942341     0.08100
H3197       H  0.62533129  0.57383845  0.37044499     0.11600
H3198       H  0.63373435  0.62851919  0.36766408     0.11800
H3199       H  0.57406703  0.63092085  0.36660038     0.08100
C3200       C  0.51244604  0.61773854  0.37477713    -0.11000
C3201       C  0.47822407  0.61806666  0.37550130    -0.10300
C3202       C  0.45931733  0.60592630  0.36909496    -0.01200
C3203       C  0.47536444  0.59382967  0.36159649    -0.11400
C3204       C  0.50956528  0.59338849  0.36097309    -0.09800
H3205       H  0.52629570  0.62693160  0.38015077     0.08100
H3206       H  0.46657768  0.62754042  0.38136635     0.11800
H3207       H  0.46150403  0.58429987  0.35654583     0.11600
H3208       H  0.52116170  0.58368608  0.35530128     0.08100
C3209       C  0.75332313  0.51979586  0.35334737    -0.11000
C3210       C  0.76588584  0.50961786  0.36302779     0.06200
C3211       C  0.77460804  0.51751090  0.37434586    -0.09700
C3212       C  0.77026171  0.53507869  0.37601070    -0.11400
C3213       C  0.75727657  0.54518375  0.36637762    -0.01200
C3214       C  0.74911093  0.53737354  0.35499821    -0.10300
C3215       C  0.76803255  0.49074018  0.36164361     0.06200
H3216       H  0.78382778  0.51001674  0.38206416     0.08100
H3217       H  0.77658388  0.54071154  0.38492586     0.11600
H3218       H  0.73898173  0.54481940  0.34742146     0.11800
H3219       H  0.74659104  0.51413868  0.34449052     0.08100
C3220       C  0.74242253  0.48161223  0.35598427    -0.11000
C3221       C  0.74245435  0.46377662  0.35593041    -0.10300
C3222       C  0.76802693  0.45466333  0.36156955    -0.01200
C3223       C  0.79454323  0.46372801  0.36660532    -0.11400
C3224       C  0.79454334  0.48158581  0.36664517    -0.09800
H3225       H  0.72153082  0.48823978  0.35212952     0.08100
H3226       H  0.72167923  0.45713062  0.35198875     0.11800
H3227       H  0.81473792  0.45702333  0.37091316     0.11600
H3228       H  0.81493954  0.48824198  0.37085364     0.08100
C3229       C  0.74605704  0.63282415  0.42606786    -0.11000
C3230       C  0.75027760  0.62027956  0.43533091     0.06200
C3231       C  0.75449339  0.60323882  0.43156913    -0.09700
C3232       C  0.75339011  0.59878442  0.41892308    -0.11400
C3233       C  0.74793115  0.61124294  0.40972779    -0.01200
C3234       C  0.74487153  0.62835067  0.41341360    -0.10300
C3235       C  0.74853581  0.62486341  0.44883703     0.06200
H3236       H  0.75835821  0.59330346  0.43842129     0.08100
H3237       H  0.75613485  0.58549838  0.41636244     0.11600
H3238       H  0.74079076  0.63823563  0.40653546     0.11800
H3239       H  0.74244448  0.64604851  0.42861700     0.08100
C3240       C  0.73165785  0.61437082  0.45732238    -0.11000
C3241       C  0.72733011  0.61943130  0.46975658    -0.10300
C3242       C  0.74000637  0.63501786  0.47401758    -0.01200
C3243       C  0.75800335  0.64517741  0.46569626    -0.11400
C3244       C  0.76213600  0.64018638  0.45324967    -0.09800
H3245       H  0.72055226  0.60258601  0.45423096     0.08100
H3246       H  0.71316471  0.61139517  0.47593229     0.11800
H3247       H  0.76789002  0.65730636  0.46868396     0.11600
H3248       H  0.77562729  0.64846058  0.44702885     0.08100
C3249       C  0.58308774  0.33614796  0.17511923    -0.11000
C3250       C  0.60191718  0.34846063  0.18143325     0.06200
C3251       C  0.60122218  0.34863460  0.19455585    -0.09700
C3252       C  0.58492349  0.33580288  0.20118026    -0.11400
C3253       C  0.56914150  0.32247539  0.19484029    -0.01200
C3254       C  0.56717091  0.32316693  0.18176985    -0.10300
C3255       C  0.62540360  0.35947799  0.17443858     0.06200
H3256       H  0.61508019  0.35807383  0.19970193     0.08100
H3257       H  0.58754548  0.33530422  0.21122928     0.11600
H3258       H  0.55599174  0.31276985  0.17665314     0.11800
H3259       H  0.58315713  0.33560291  0.16502897     0.08100
C3260       C  0.61655506  0.36727783  0.16312505    -0.11000
C3261       C  0.63965087  0.37636247  0.15610998    -0.10300
C3262       C  0.67228433  0.37767415  0.16014459    -0.01200
C3263       C  0.68107405  0.37007788  0.17152589    -0.11400
C3264       C  0.65789651  0.36116846  0.17861239    -0.09800
H3265       H  0.59177183  0.36625120  0.15965494     0.08100
H3266       H  0.63209170  0.38209940  0.14739245     0.11800
H3267       H  0.70598335  0.37084582  0.17488901     0.11600
H3268       H  0.66570908  0.35507929  0.18716998     0.08100
C3269       C  0.20429857  0.37887434  0.18511922    -0.11000
C3270       C  0.22998835  0.36826961  0.18108041     0.06200
C3271       C  0.23329200  0.36517966  0.16820100    -0.09700
C3272       C  0.21134057  0.37240264  0.15962370    -0.11400
C3273       C  0.18524132  0.38262844  0.16374278    -0.01200
C3274       C  0.18209832  0.38585312  0.17657395    -0.10300
C3275       C  0.25142085  0.35954677  0.19041629     0.06200
H3276       H  0.25281034  0.35712772  0.16475964     0.08100
H3277       H  0.21440018  0.36971821  0.14978240     0.11600
H3278       H  0.16236166  0.39375423  0.18002003     0.11800
H3279       H  0.20063495  0.38132487  0.19496156     0.08100
C3280       C  0.26138315  0.36800630  0.20136577    -0.11000
C3281       C  0.27580907  0.35896436  0.21120914    -0.10300
C3282       C  0.28097271  0.34131164  0.21028324    -0.01200
C3283       C  0.27316796  0.33306134  0.19904387    -0.11400
C3284       C  0.25884609  0.34209698  0.18916324    -0.09800
H3285       H  0.25640722  0.38147241  0.20259376     0.08100
H3286       H  0.28066838  0.36550700  0.21991548     0.11800
H3287       H  0.27532929  0.31932474  0.19831092     0.11600
H3288       H  0.25113040  0.33511324  0.18096308     0.08100
C3289       C  0.38415846  0.31668590  0.20589555    -0.11000
C3290       C  0.40862571  0.31866549  0.21500619     0.06200
C3291       C  0.39943067  0.32246195  0.22730120    -0.09700
C3292       C  0.36641855  0.32353509  0.23053458    -0.11400
C3293       C  0.34185652  0.32101303  0.22154345    -0.01200
C3294       C  0.35101353  0.31798416  0.20911686    -0.10300
C3295       C  0.44333046  0.31486592  0.21213033     0.06200
H3296       H  0.41778252  0.32381565  0.23451875     0.08100
H3297       H  0.35990238  0.32593239  0.24017307     0.11600
H3298       H  0.33270687  0.31578416  0.20205512     0.11800
H3299       H  0.39072776  0.31366187  0.19635298     0.08100
C3300       C  0.45178567  0.29874238  0.20747454    -0.11000
C3301       C  0.48455931  0.29408709  0.20620493    -0.10300
C3302       C  0.50959718  0.30554767  0.20935102    -0.01200
C3303       C  0.50130648  0.32195993  0.21349465    -0.11400
C3304       C  0.46835544  0.32652117  0.21504183    -0.09800
H3305       H  0.43298307  0.28947290  0.20531264     0.08100
H3306       H  0.49053009  0.28139439  0.20296173     0.11800
H3307       H  0.52028902  0.33093834  0.21599849     0.11600
H3308       H  0.46236434  0.33900639  0.21869771     0.08100
C3309       C  0.26856379  0.14383265  0.30875132    -0.11000
C3310       C  0.25963128  0.15052443  0.32044601     0.06200
C3311       C  0.26883100  0.16738122  0.32332894    -0.09700
C3312       C  0.28294127  0.17786785  0.31423520    -0.11400
C3313       C  0.28858725  0.17164991  0.30215730    -0.01200
C3314       C  0.28276663  0.15433541  0.29967817    -0.10300
C3315       C  0.23691542  0.14093445  0.32880285     0.06200
H3316       H  0.26291379  0.17283260  0.33232741     0.08100
H3317       H  0.28628195  0.19129630  0.31627452     0.11600
H3318       H  0.28608643  0.14940082  0.29033016     0.11800
H3319       H  0.26180303  0.13094969  0.30617768     0.08100
C3320       C  0.23971819  0.12320249  0.33051330    -0.11000
C3321       C  0.21685342  0.11429013  0.33778721    -0.10300
C3322       C  0.19045165  0.12288346  0.34339134    -0.01200
C3323       C  0.18761215  0.14055641  0.34163589    -0.11400
C3324       C  0.21052181  0.14945896  0.33447428    -0.09800
H3325       H  0.25967207  0.11622098  0.32625830     0.08100
H3326       H  0.21972208  0.10067448  0.33897584     0.11800
H3327       H  0.16755478  0.14755451  0.34580202     0.11600
H3328       H  0.20704712  0.16300759  0.33311353     0.08100
C3329       C  0.33699580  0.24533791  0.27103252    -0.11000
C3330       C  0.32811806  0.24779883  0.25844861     0.06200
C3331       C  0.31587849  0.23379295  0.25169933    -0.09700
C3332       C  0.30971791  0.21829166  0.25767564    -0.11400
C3333       C  0.31589734  0.21638365  0.27047949    -0.01200
C3334       C  0.33095284  0.22975478  0.27699341    -0.10300
C3335       C  0.32686682  0.26526039  0.25291941     0.06200
H3336       H  0.30849996  0.23517234  0.24205017     0.08100
H3337       H  0.29799399  0.20813516  0.25249257     0.11600
H3338       H  0.33556288  0.22864648  0.28691180     0.11800
H3339       H  0.34695728  0.25576158  0.27646029     0.08100
C3340       C  0.31554355  0.27901914  0.26015437    -0.11000
C3341       C  0.30819889  0.29467818  0.25462379    -0.10300
C3342       C  0.31212333  0.29705140  0.24172965    -0.01200
C3343       C  0.32556015  0.28376767  0.23458831    -0.11400
C3344       C  0.33279943  0.26800100  0.24012133    -0.09800
H3345       H  0.31016443  0.27738903  0.26997565     0.08100
H3346       H  0.29774508  0.30468906  0.26032987     0.11800
H3347       H  0.32837576  0.28516508  0.22459027     0.11600
H3348       H  0.34175460  0.25774321  0.23428784     0.08100
C3349       C  0.60100353  0.17395060  0.33208781    -0.11000
C3350       C  0.61035186  0.15835407  0.32664967     0.06200
C3351       C  0.60137795  0.15523373  0.31415519    -0.09700
C3352       C  0.58608132  0.16794420  0.30699518    -0.11400
C3353       C  0.57953284  0.18403006  0.31217392    -0.01200
C3354       C  0.58597883  0.18665023  0.32490369    -0.10300
C3355       C  0.63226845  0.14634724  0.33358787     0.06200
H3356       H  0.60777745  0.14327761  0.30971350     0.08100
H3357       H  0.58222553  0.16576353  0.29712822     0.11600
H3358       H  0.58208815  0.19912157  0.32901652     0.11800
H3359       H  0.60770231  0.17690630  0.34161340     0.08100
C3360       C  0.62824973  0.14349329  0.34646160    -0.11000
C3361       C  0.65052663  0.13337747  0.35311868    -0.10300
C3362       C  0.67759082  0.12598270  0.34710091    -0.01200
C3363       C  0.68147398  0.12865011  0.33422922    -0.11400
C3364       C  0.65904184  0.13863395  0.32754678    -0.09800
H3365       H  0.60790201  0.14915629  0.35141757     0.08100
H3366       H  0.64684675  0.13156775  0.36302906     0.11800
H3367       H  0.70206366  0.12313586  0.32932905     0.11600
H3368       H  0.66330743  0.14078009  0.31770863     0.08100
C3369       C  0.47413302  0.18191502  0.29029699    -0.11000
C3370       C  0.45146791  0.19281468  0.29618000     0.06200
C3371       C  0.46334757  0.20662834  0.30321230    -0.09700
C3372       C  0.49684589  0.21000757  0.30378969    -0.11400
C3373       C  0.51921890  0.19953984  0.29751847    -0.01200
C3374       C  0.50779460  0.18519402  0.29104753    -0.10300
C3375       C  0.41562340  0.19085979  0.29413857     0.06200
H3376       H  0.44663466  0.21537542  0.30772623     0.08100
H3377       H  0.50536674  0.22117166  0.30875944     0.11600
H3378       H  0.52480134  0.17705843  0.28610754     0.11800
H3379       H  0.46576233  0.17110581  0.28488560     0.08100
C3380       C  0.40340372  0.18774428  0.28208635    -0.11000
C3381       C  0.36976838  0.18802590  0.27979230    -0.10300
C3382       C  0.34753207  0.19124082  0.28948352    -0.01200
C3383       C  0.35949973  0.19371971  0.30161650    -0.11400
C3384       C  0.39323401  0.19359828  0.30391562    -0.09800
H3385       H  0.41990769  0.18582412  0.27432149     0.08100
H3386       H  0.36098323  0.18604583  0.27035957     0.11800
H3387       H  0.34287859  0.19641604  0.30919278     0.11600
H3388       H  0.40187816  0.19597393  0.31331585     0.08100
C3389       C  0.52174820  0.23079792  0.26037369    -0.11000
C3390       C  0.53073881  0.24809267  0.25927007     0.06200
C3391       C  0.54534082  0.25607078  0.26960823    -0.09700
C3392       C  0.55327260  0.24671400  0.28029471    -0.11400
C3393       C  0.54685076  0.22912176  0.28098566    -0.01200
C3394       C  0.52968235  0.22140568  0.27113203    -0.10300
C3395       C  0.52950249  0.25713185  0.24697778     0.06200
H3396       H  0.55292331  0.26928134  0.26911057     0.08100
H3397       H  0.56642678  0.25304114  0.28774901     0.11600
H3398       H  0.52475825  0.20786022  0.27126981     0.11800
H3399       H  0.51012604  0.22429477  0.25263608     0.08100
C3400       C  0.53967674  0.24864372  0.23609131    -0.11000
C3401       C  0.54517406  0.25766084  0.22503350    -0.10300
C3402       C  0.54044104  0.27539592  0.22449462    -0.01200
C3403       C  0.52784949  0.28374371  0.23505475    -0.11400
C3404       C  0.52256636  0.27472135  0.24620234    -0.09800
H3405       H  0.54568290  0.23519608  0.23632847     0.08100
H3406       H  0.55498450  0.25089272  0.21705286     0.11800
H3407       H  0.52441011  0.29744466  0.23499464     0.11600
H3408       H  0.51448205  0.28164625  0.25437980     0.08100
C3409       C  0.22143842  0.85927348  0.19933530    -0.11000
C3410       C  0.22846405  0.84997805  0.18844932     0.06200
C3411       C  0.21862646  0.83278429  0.18781808    -0.09700
C3412       C  0.20445711  0.82477105  0.19821306    -0.11400
C3413       C  0.20036565  0.83371650  0.20945140    -0.01200
C3414       C  0.20793706  0.85117974  0.20977401    -0.10300
C3415       C  0.24940242  0.85766872  0.17853399     0.06200
H3416       H  0.22352275  0.82533887  0.17952920     0.08100
H3417       H  0.19960488  0.81118767  0.19783884     0.11600
H3418       H  0.20581997  0.85821277  0.21842298     0.11800
H3419       H  0.22890783  0.87249001  0.20015144     0.08100
C3420       C  0.24343923  0.87423897  0.17407819    -0.11000
C3421       C  0.26485816  0.88193756  0.16554857    -0.10300
C3422       C  0.29305134  0.87335018  0.16141237    -0.01200
C3423       C  0.29902486  0.85678849  0.16587890    -0.11400
C3424       C  0.27733962  0.84899138  0.17425164    -0.09800
H3425       H  0.22221722  0.88127739  0.17725093     0.08100
H3426       H  0.25958442  0.89471324  0.16231196     0.11800
H3427       H  0.32056505  0.84984499  0.16291562     0.11600
H3428       H  0.28295164  0.83635120  0.17769349     0.08100
C3429       C  0.88826250  0.82495669  0.17771983    -0.11000
C3430       C  0.87650021  0.84077233  0.18193971     0.06200
C3431       C  0.88364207  0.84591547  0.19419397    -0.09700
C3432       C  0.89944162  0.83471960  0.20244081    -0.11400
C3433       C  0.90890835  0.81835771  0.19848617    -0.01200
C3434       C  0.90453999  0.81390846  0.18590405    -0.10300
C3435       C  0.85252222  0.85044627  0.17431511     0.06200
H3436       H  0.87442756  0.85796316  0.19769914     0.08100
H3437       H  0.90142986  0.83818321  0.21219193     0.11600
H3438       H  0.91055738  0.80114902  0.18274271     0.11800
H3439       H  0.88284481  0.82069191  0.16833625     0.08100
C3440       C  0.82230280  0.84295223  0.17141784    -0.11000
C3441       C  0.79865788  0.85196851  0.16467613    -0.10300
C3442       C  0.80480826  0.86863513  0.16052415    -0.01200
C3443       C  0.83523470  0.87612459  0.16333058    -0.11400
C3444       C  0.85876345  0.86715927  0.17028620    -0.09800
H3445       H  0.81682271  0.83014960  0.17455736     0.08100
H3446       H  0.77553118  0.84584609  0.16267381     0.11800
H3447       H  0.84072361  0.88893602  0.16023124     0.11600
H3448       H  0.88187498  0.87320338  0.17245502     0.08100
C3449       C  0.01651980  0.81850068  0.21710739    -0.11000
C3450       C  0.03902466  0.80658651  0.21224917     0.06200
C3451       C  0.02652546  0.79213268  0.20601951    -0.09700
C3452       C  0.99283252  0.78906817  0.20551571    -0.11400
C3453       C  0.97077825  0.80062119  0.21087076    -0.01200
C3454       C  0.98278979  0.81559486  0.21631291    -0.10300
C3455       C  0.07505800  0.80853896  0.21449266     0.06200
H3456       H  0.04277036  0.78289438  0.20179723     0.08100
H3457       H  0.98391959  0.77744350  0.20125832     0.11600
H3458       H  0.96605595  0.82452415  0.22062707     0.11800
H3459       H  0.02483868  0.82965929  0.22211004     0.08100
C3460       C  0.08970646  0.82475085  0.21563589    -0.11000
C3461       C  0.12288108  0.82635810  0.21874852    -0.10300
C3462       C  0.14223810  0.81183613  0.22076799    -0.01200
C3463       C  0.12807291  0.79570017  0.21921718    -0.11400
C3464       C  0.09497879  0.79405231  0.21619772    -0.09800
H3465       H  0.07553995  0.83623969  0.21423687     0.08100
H3466       H  0.13321962  0.83895928  0.21999058     0.11800
H3467       H  0.14254498  0.78430264  0.22061556     0.11600
H3468       H  0.08485863  0.78134296  0.21566876     0.08100
C3469       C  0.21524902  0.67487031  0.34242423    -0.11000
C3470       C  0.22866808  0.66157698  0.33523547     0.06200
C3471       C  0.22465907  0.66212970  0.32218806    -0.09700
C3472       C  0.20954600  0.67617524  0.31644642    -0.11400
C3473       C  0.19836184  0.68997915  0.32363424    -0.01200
C3474       C  0.20055116  0.68894942  0.33667700    -0.10300
C3475       C  0.24939770  0.64826020  0.34133090     0.06200
H3476       H  0.23455259  0.65205532  0.31638065     0.08100
H3477       H  0.20917514  0.67692586  0.30636434     0.11600
H3478       H  0.19311110  0.69968196  0.34238995     0.11800
H3479       H  0.21825950  0.67501109  0.35245910     0.08100
C3480       C  0.24041696  0.64121189  0.35289633    -0.11000
C3481       C  0.26169016  0.63033053  0.35935810    -0.10300
C3482       C  0.29269368  0.62640021  0.35450082    -0.01200
C3483       C  0.30128353  0.63292201  0.34274049    -0.11400
C3484       C  0.27981531  0.64364484  0.33619596    -0.09800
H3485       H  0.21709389  0.64438345  0.35707043     0.08100
H3486       H  0.25431492  0.62547671  0.36837873     0.11800
H3487       H  0.32494524  0.63007406  0.33873662     0.11600
H3488       H  0.28768659  0.64896480  0.32737722     0.08100
C3489       C  0.16092824  0.76629806  0.28583794    -0.11000
C3490       C  0.15502819  0.75858956  0.27421266     0.06200
C3491       C  0.15283752  0.74069520  0.27361739    -0.09700
C3492       C  0.15853071  0.73071133  0.28425993    -0.11400
C3493       C  0.16708254  0.73843847  0.29562320    -0.01200
C3494       C  0.16727291  0.75632662  0.29638505    -0.10300
C3495       C  0.15674212  0.76904505  0.26263744     0.06200
H3496       H  0.14835865  0.73441943  0.26477937     0.08100
H3497       H  0.15873538  0.71695916  0.28336828     0.11600
H3498       H  0.17408905  0.76260912  0.30501378     0.11800
H3499       H  0.16325511  0.78001043  0.28657426     0.08100
C3500       C  0.14124608  0.78505923  0.26184486    -0.11000
C3501       C  0.14891200  0.79637332  0.25212553    -0.10300
C3502       C  0.17243771  0.79190737  0.24319136    -0.01200
C3503       C  0.18625228  0.77554321  0.24352149    -0.11400
C3504       C  0.17823056  0.76416375  0.25306074    -0.09800
H3505       H  0.12458965  0.78913839  0.26909245     0.08100
H3506       H  0.13837230  0.80905852  0.25212844     0.11800
H3507       H  0.20485377  0.77198391  0.23683033     0.11600
H3508       H  0.19093849  0.75204822  0.25349318     0.08100
C3509       C  0.88465616  0.66471809  0.32986944    -0.11000
C3510       C  0.87075282  0.64931559  0.32568426     0.06200
C3511       C  0.87655990  0.64425387  0.31329150    -0.09700
C3512       C  0.89365938  0.65490644  0.30506273    -0.11400
C3513       C  0.90513316  0.67095519  0.30896730    -0.01200
C3514       C  0.90132470  0.67550419  0.32155799    -0.10300
C3515       C  0.84786160  0.63945102  0.33383525     0.06200
H3516       H  0.86644108  0.63241202  0.30979088     0.08100
H3517       H  0.89527524  0.65131232  0.29532232     0.11600
H3518       H  0.90852120  0.68807730  0.32471073     0.11800
H3519       H  0.88039455  0.66905829  0.33931765     0.08100
C3520       C  0.85548109  0.63604213  0.34638399    -0.11000
C3521       C  0.83330390  0.62734098  0.35409941    -0.10300
C3522       C  0.80271753  0.62203574  0.34950417    -0.01200
C3523       C  0.79500544  0.62554181  0.33697801    -0.11400
C3524       C  0.81734554  0.63403130  0.32922566    -0.09800
H3525       H  0.87874611  0.64004077  0.35021937     0.08100
H3526       H  0.84001075  0.62486490  0.36369195     0.11800
H3527       H  0.77164012  0.62170920  0.33314975     0.11600
H3528       H  0.81045635  0.63669749  0.31967092     0.08100
C3529       C  0.02674405  0.68638098  0.29259774    -0.11000
C3530       C  0.03693085  0.69252991  0.30430077     0.06200
C3531       C  0.01280933  0.69632805  0.31328362    -0.09700
C3532       C  0.97946719  0.69490781  0.31037883    -0.11400
C3533       C  0.96949841  0.68967225  0.29845411    -0.01200
C3534       C  0.99345329  0.68502438  0.28970988    -0.10300
C3535       C  0.07216026  0.69657651  0.30662760     0.06200
H3536       H  0.01971593  0.70093867  0.32243449     0.08100
H3537       H  0.96149097  0.69885593  0.31719191     0.11600
H3538       H  0.98631937  0.68099876  0.28045431     0.11800
H3539       H  0.04448307  0.68351020  0.28539829     0.08100
C3540       C  0.09749979  0.68607111  0.30204919    -0.11000
C3541       C  0.13043450  0.69092925  0.30331160    -0.10300
C3542       C  0.13853602  0.70644864  0.30903993    -0.01200
C3543       C  0.11340699  0.71671198  0.31382988    -0.11400
C3544       C  0.08071373  0.71183535  0.31269914    -0.09800
H3545       H  0.09182120  0.67419187  0.29738261     0.08100
H3546       H  0.14945347  0.68286336  0.29951827     0.11800
H3547       H  0.11922383  0.72872701  0.31828944     0.11600
H3548       H  0.06204044  0.72039513  0.31615924     0.08100
C3549       C  0.95653370  0.74141890  0.26919190    -0.11000
C3550       C  0.96108137  0.73516961  0.25695565     0.06200
C3551       C  0.96135698  0.71733554  0.25522304    -0.09700
C3552       C  0.95303568  0.70631043  0.26498076    -0.11400
C3553       C  0.94551979  0.71275768  0.27683005    -0.01200
C3554       C  0.94879378  0.73029813  0.27900927    -0.10300
C3555       C  0.95983914  0.74700737  0.24592914     0.06200
H3556       H  0.96587188  0.71185999  0.24611533     0.08100
H3557       H  0.95005654  0.69285897  0.26302938     0.11600
H3558       H  0.94245207  0.73556890  0.28803945     0.11800
H3559       H  0.95592888  0.75495858  0.27103439     0.08100
C3560       C  0.94443913  0.74165945  0.23482435    -0.11000
C3561       C  0.93654445  0.75331987  0.22546736    -0.10300
C3562       C  0.94366248  0.77067709  0.22688193    -0.01200
C3563       C  0.96146428  0.77598502  0.23737851    -0.11400
C3564       C  0.96960005  0.76424934  0.24680854    -0.09800
H3565       H  0.93582755  0.72872591  0.23369407     0.08100
H3566       H  0.92240609  0.74898440  0.21752530     0.11800
H3567       H  0.96678507  0.78938943  0.23875909     0.11600
H3568       H  0.98202957  0.76888800  0.25504399     0.08100
C3569       C  0.22970521  0.15641616  0.18999403    -0.11000
C3570       C  0.24521545  0.14096583  0.19316527     0.06200
C3571       C  0.24303970  0.13515367  0.20552532    -0.09700
C3572       C  0.22849665  0.14523571  0.21472973    -0.11400
C3573       C  0.21565837  0.16135208  0.21180633    -0.01200
C3574       C  0.21510653  0.16657156  0.19927660    -0.10300
C3575       C  0.26693177  0.13196999  0.18413011     0.06200
H3576       H  0.25433185  0.12320747  0.20821714     0.08100
H3577       H  0.22958251  0.14104489  0.22434572     0.11600
H3578       H  0.20610069  0.17913930  0.19684464     0.11800
H3579       H  0.23112234  0.16124815  0.18055538     0.08100
C3580       C  0.25700838  0.12862851  0.17181477    -0.11000
C3581       C  0.27837469  0.12063745  0.16337567    -0.10300
C3582       C  0.31025151  0.11604813  0.16703879    -0.01200
C3583       C  0.32004191  0.11935000  0.17935843    -0.11400
C3584       C  0.29864658  0.12715763  0.18779714    -0.09800
H3585       H  0.23270586  0.13213532  0.16874146     0.08100
H3586       H  0.27005637  0.11818132  0.15395874     0.11800
H3587       H  0.34437914  0.11599814  0.18246977     0.11600
H3588       H  0.30718905  0.12978348  0.19716504     0.08100
C3589       C  0.83506719  0.14515136  0.17053381    -0.11000
C3590       C  0.86420897  0.13779697  0.17498971     0.06200
C3591       C  0.86910987  0.12020748  0.17315181    -0.09700
C3592       C  0.84559896  0.11032821  0.16685090    -0.11400
C3593       C  0.81649761  0.11780009  0.16243732    -0.01200
C3594       C  0.81157466  0.13530205  0.16438791    -0.10300
C3595       C  0.88812369  0.14860924  0.18199362     0.06200
H3596       H  0.89123378  0.11413847  0.17648172     0.08100
H3597       H  0.85015019  0.09686975  0.16544306     0.11600
H3598       H  0.78948017  0.14146247  0.16110982     0.11800
H3599       H  0.83008441  0.15854904  0.17201509     0.08100
C3600       C  0.89429497  0.16540295  0.17805299    -0.11000
C3601       C  0.90973815  0.17704799  0.18598971    -0.10300
C3602       C  0.91964534  0.17221688  0.19802295    -0.01200
C3603       C  0.91686107  0.15499182  0.20146717    -0.11400
C3604       C  0.90134189  0.14324351  0.19348258    -0.09800
H3605       H  0.88508354  0.16987001  0.16916929     0.08100
H3606       H  0.91107318  0.19031443  0.18318466     0.11800
H3607       H  0.92354048  0.15103070  0.21079878     0.11600
H3608       H  0.89704944  0.13039409  0.19680004     0.08100
C3609       C  0.02939552  0.17381571  0.22322535    -0.11000
C3610       C  0.04905196  0.18169344  0.21409876     0.06200
C3611       C  0.03342017  0.19095910  0.20452923    -0.09700
C3612       C  0.99938543  0.19295861  0.20444826    -0.11400
C3613       C  0.98020605  0.18574165  0.21388501    -0.01200
C3614       C  0.99536034  0.17591620  0.22314810    -0.10300
C3615       C  0.08557382  0.18149208  0.21519654     0.06200
H3616       H  0.04755296  0.19701440  0.19724928     0.08100
H3617       H  0.98804698  0.20078017  0.19732806     0.11600
H3618       H  0.98089620  0.17045779  0.23059261     0.11800
H3619       H  0.04040646  0.16678066  0.23083107     0.08100
C3620       C  0.10236301  0.16715323  0.21987855    -0.11000
C3621       C  0.13607723  0.16787551  0.22228335    -0.10300
C3622       C  0.15372877  0.18291663  0.22006373    -0.01200
C3623       C  0.13752125  0.19679944  0.21463463    -0.11400
C3624       C  0.10387365  0.19617375  0.21232216    -0.09800
H3625       H  0.08931802  0.15549842  0.22196000     0.08100
H3626       H  0.14815739  0.15694825  0.22638549     0.11800
H3627       H  0.15073769  0.20824967  0.21235800     0.11600
H3628       H  0.09204060  0.20750072  0.20874705     0.08100
C3629       C  0.23765864  0.33041984  0.33199511    -0.11000
C3630       C  0.24749578  0.34658235  0.32766936     0.06200
C3631       C  0.23875397  0.35135799  0.31545174    -0.09700
C3632       C  0.22371200  0.33968489  0.30739259    -0.11400
C3633       C  0.21688507  0.32303426  0.31138504    -0.01200
C3634       C  0.22269824  0.31873562  0.32389230    -0.10300
C3635       C  0.26978690  0.35754646  0.33530953     0.06200
H3636       H  0.24529850  0.36380682  0.31187223     0.08100
H3637       H  0.22029296  0.34313120  0.29769321     0.11600
H3638       H  0.21857896  0.30579648  0.32706267     0.11800
H3639       H  0.24405036  0.32623136  0.34130171     0.08100
C3640       C  0.26649123  0.35866312  0.34835224    -0.11000
C3641       C  0.28869139  0.36820742  0.35547699    -0.10300
C3642       C  0.31486022  0.37680812  0.34975669    -0.01200
C3643       C  0.31824370  0.37569688  0.33675075    -0.11400
C3644       C  0.29598618  0.36622822  0.32962008    -0.09800
H3645       H  0.24665853  0.35219638  0.35306504     0.08100
H3646       H  0.28549331  0.36876015  0.36549714     0.11800
H3647       H  0.33823843  0.38208242  0.33207832     0.11600
H3648       H  0.29985498  0.36534924  0.31965190     0.08100
C3649       C  0.16806083  0.22285320  0.26000966    -0.11000
C3650       C  0.16582908  0.23878381  0.25400712     0.06200
C3651       C  0.16770486  0.23918923  0.24088618    -0.09700
C3652       C  0.17507727  0.22443259  0.23410083    -0.11400
C3653       C  0.17917025  0.20876382  0.24018950    -0.01200
C3654       C  0.17464623  0.20803567  0.25316217    -0.10300
C3655       C  0.16764671  0.25489866  0.26144752     0.06200
H3656       H  0.16586195  0.25115353  0.23590099     0.08100
H3657       H  0.18056602  0.22565731  0.22428439     0.11600
H3658       H  0.17892051  0.19620020  0.25812979     0.11800
H3659       H  0.16751107  0.22197676  0.27008306     0.08100
C3660       C  0.15397597  0.25609786  0.27350180    -0.11000
C3661       C  0.16267074  0.26952107  0.28152733    -0.10300
C3662       C  0.18507784  0.28193390  0.27759964    -0.01200
C3663       C  0.19610128  0.28166727  0.26521793    -0.11400
C3664       C  0.18753536  0.26835004  0.25724307    -0.09800
H3665       H  0.13812829  0.24614289  0.27698751     0.08100
H3666       H  0.15410855  0.26936311  0.29108714     0.11800
H3667       H  0.21353932  0.29107388  0.26201257     0.11600
H3668       H  0.19897838  0.26792402  0.24814492     0.08100
C3669       C  0.89897126  0.32808184  0.32622710    -0.11000
C3670       C  0.88959326  0.34511298  0.32404812     0.06200
C3671       C  0.89799869  0.35258507  0.31255706    -0.09700
C3672       C  0.91287897  0.34292776  0.30313216    -0.11400
C3673       C  0.92043818  0.32566844  0.30504925    -0.01200
C3674       C  0.91440343  0.31850059  0.31683122    -0.10300
C3675       C  0.86842641  0.35460738  0.33308111     0.06200
H3676       H  0.89083847  0.36558505  0.31048427     0.08100
H3677       H  0.91629215  0.34857811  0.29401681     0.11600
H3678       H  0.91904568  0.30505567  0.31841142     0.11800
H3679       H  0.89307511  0.32197411  0.33498457     0.08100
C3680       C  0.84121714  0.34666406  0.33864000    -0.11000
C3681       C  0.81897764  0.35610326  0.34585688    -0.10300
C3682       C  0.82356488  0.37367229  0.34777981    -0.01200
C3683       C  0.85146447  0.38144995  0.34267295    -0.11400
C3684       C  0.87348412  0.37206849  0.33536874    -0.09800
H3685       H  0.83637772  0.33328419  0.33698851     0.08100
H3686       H  0.79789679  0.34970507  0.34976190     0.11800
H3687       H  0.85591628  0.39491239  0.34409331     0.11600
H3688       H  0.89432788  0.37855347  0.33134721     0.08100
C3689       C  0.03249917  0.32231631  0.29547452    -0.11000
C3690       C  0.05104644  0.30786211  0.29867268     0.06200
C3691       C  0.03470717  0.29231187  0.30064030    -0.09700
C3692       C  0.00088319  0.29104898  0.29880223    -0.11400
C3693       C  0.98262628  0.30535680  0.29515078    -0.01200
C3694       C  0.99861546  0.32109339  0.29383452    -0.10300
C3695       C  0.08744416  0.30858089  0.29889059     0.06200
H3696       H  0.04833503  0.28091795  0.30299570     0.08100
H3697       H  0.98906295  0.27879846  0.29986253     0.11600
H3698       H  0.98506959  0.33224861  0.29088757     0.11800
H3699       H  0.04435013  0.33447551  0.29395023     0.08100
C3700       C  0.10451213  0.31634485  0.28901644    -0.11000
C3701       C  0.13858473  0.31515555  0.28827545    -0.10300
C3702       C  0.15633135  0.30653554  0.29750929    -0.01200
C3703       C  0.13965044  0.29953867  0.30771915    -0.11400
C3704       C  0.10545414  0.30041468  0.30835333    -0.09800
H3705       H  0.09137360  0.32255847  0.28152156     0.08100
H3706       H  0.15113320  0.32043688  0.28026569     0.11800
H3707       H  0.15301529  0.29266091  0.31483033     0.11600
H3708       H  0.09299536  0.29437617  0.31609539     0.08100
C3709       C  0.94745245  0.24827255  0.27049054    -0.11000
C3710       C  0.96945939  0.25049265  0.26057348     0.06200
C3711       C  0.98603326  0.26619558  0.25955892    -0.09700
C3712       C  0.97845349  0.27983188  0.26759339    -0.11400
C3713       C  0.95410365  0.27795418  0.27670152    -0.01200
C3714       C  0.93969908  0.26188350  0.27838166    -0.10300
C3715       C  0.96982505  0.23778459  0.25019030     0.06200
H3716       H  0.00320871  0.26825542  0.25203227     0.08100
H3717       H  0.98956967  0.29217333  0.26602050     0.11600
H3718       H  0.92050192  0.26023429  0.28522507     0.11800
H3719       H  0.93393048  0.23648104  0.27145637     0.08100
C3720       C  0.96955012  0.22010594  0.25256267    -0.11000
C3721       C  0.96168968  0.20845650  0.24304458    -0.10300
C3722       C  0.95374963  0.21431142  0.23104532    -0.01200
C3723       C  0.95618215  0.23180761  0.22848994    -0.11400
C3724       C  0.96441932  0.24339454  0.23790712    -0.09800
H3725       H  0.97346852  0.21539558  0.26194379     0.08100
H3726       H  0.95916908  0.19507157  0.24531000     0.11800
H3727       H  0.94936623  0.23664454  0.21938272     0.11600
H3728       H  0.96376222  0.25688776  0.23579826     0.08100
loop_ 
_geom_bond_atom_site_label_1 
_geom_bond_atom_site_label_2 
_geom_bond_distance 
_geom_bond_site_symmetry_2 
_ccdc_geom_bond_type 
N1            C5   1.362       .  A
N1            C2   1.363       .  A
N1         C3693   1.443       .  S
C2            C3   1.381       .  A
C2         C3673   1.482       .  S
C3            C4   1.371       .  A
C3            H6   1.083       .  S
C4            C5   1.381       .  A
C4            H7   1.083       .  S
C5         C3713   1.483       .  S
N8           C12   1.359       .  A
N8            C9   1.360       .  A
N8         C3702   1.438       .  S
C9           C10   1.381       .  A
C9         C3633   1.475       .  S
C10          C11   1.370       .  A
C10          H13   1.083       .  S
C11          C12   1.382       .  A
C11          H14   1.083       .  S
C12        C3662   1.480       .  S
N15          C19   1.361       .  A
N15          C16   1.363       .  A
N15        C3613   1.439       .  S
C16          C17   1.383       .  A
C16        C3602   1.483       .  S
C17          C18   1.370       .  A
C17          H20   1.083       .  S
C18          C19   1.380       .  A
C18          H21   1.083       .  S
C19        C3722   1.482       .  S
N22          C26   1.364       .  A
N22          C23   1.362       .  A
N22        C3622   1.445       .  S
C23          C24   1.383       .  A
C23        C3573   1.481       .  S
C24          C25   1.369       .  A
C24          H27   1.082       .  S
C25          C26   1.380       .  A
C25          H28   1.082       .  S
C26        C3653   1.480       .  S
N29          C33   1.362       .  A
N29          C30   1.366       .  A
N29        C3533   1.444       .  S
C30          C31   1.383       .  A
C30        C3513   1.484       .  S
C31          C32   1.370       .  A
C31          H34   1.083       .  S
C32          C33   1.379       .  A
C32          H35   1.083       .  S
C33        C3553   1.479       .  S
N36          C40   1.362       .  A
N36          C37   1.361       .  A
N36        C3542   1.443       .  S
C37          C38   1.382       .  A
C37        C3473   1.480       .  S
C38          C39   1.371       .  A
C38          H41   1.082       .  S
C39          C40   1.382       .  A
C39          H42   1.082       .  S
C40        C3493   1.486       .  S
N43          C47   1.360       .  A
N43          C44   1.361       .  A
N43        C3453   1.439       .  S
C44          C45   1.381       .  A
C44        C3433   1.477       .  S
C45          C46   1.370       .  A
C45          H48   1.083       .  S
C46          C47   1.381       .  A
C46          H49   1.083       .  S
C47        C3562   1.481       .  S
N50          C54   1.362       .  A
N50          C51   1.363       .  A
N50        C3462   1.444       .  S
C51          C52   1.383       .  A
C51        C3413   1.481       .  S
C52          C53   1.371       .  A
C52          H55   1.083       .  S
C53          C54   1.380       .  A
C53          H56   1.083       .  S
C54        C3502   1.479       .  S
N57          C61   1.364       .  A
N57          C58   1.362       .  A
N57        C3373   1.438       .  S
C58          C59   1.380       .  A
C58        C3353   1.481       .  S
C59          C60   1.370       .  A
C59          H62   1.082       .  S
C60          C61   1.383       .  A
C60          H63   1.082       .  S
C61        C3393   1.492       .  S
N64          C68   1.361       .  A
N64          C65   1.360       .  A
N64        C3382   1.442       .  S
C65          C66   1.381       .  A
C65        C3313   1.477       .  S
C66          C67   1.371       .  A
C66          H69   1.083       .  S
C67          C68   1.382       .  A
C67          H70   1.083       .  S
C68        C3333   1.480       .  S
N71          C75   1.362       .  A
N71          C72   1.362       .  A
N71        C3293   1.444       .  S
C72          C73   1.382       .  A
C72        C3282   1.480       .  S
C73          C74   1.371       .  A
C73          H76   1.082       .  S
C74          C75   1.382       .  A
C74          H77   1.082       .  S
C75        C3342   1.486       .  S
N78          C82   1.363       .  A
N78          C79   1.361       .  A
N78        C3302   1.441       .  S
C79          C80   1.380       .  A
C79        C3253   1.480       .  S
C80          C81   1.371       .  A
C80          H83   1.083       .  S
C81          C82   1.383       .  A
C81          H84   1.083       .  S
C82        C3402   1.490       .  S
In85         O87   2.261       .  S
In85         O88   2.252       .  S
In85         O96   2.276       .  S
In85         O90   2.277       .  S
In85         O92   2.283       .  S
In85         O93   2.248       .  S
In85         O94   2.269       .  S
In85         O97   2.269       .  S
C86        C3193   1.490       .  S
C86          O92   1.260       .  A
C86          O94   1.257       .  A
O87          C95   1.263       .  A
O88          C95   1.260       .  A
C89        C3522   1.493       .  S
C89          O96   1.259       .  A
C89          O90   1.261       .  A
C91        C3233   1.483       .  S
C91          O93   1.259       .  A
C91          O97   1.263       .  A
C95        C3213   1.483       .  S
In98        O100   2.247       .  S
In98        O101   2.262       .  S
In98        O109   2.265       .  S
In98        O103   2.273       .  S
In98        O105   2.266       .  S
In98        O106   2.240       .  S
In98        O107   2.264       .  S
In98        O110   2.260       .  S
C99        C3202   1.487       .  S
C99         O105   1.261       .  A
C99         O107   1.260       .  A
O100        C108   1.262       .  A
O101        C108   1.261       .  A
C102       C3482   1.487       .  S
C102        O109   1.259       .  A
C102        O103   1.261       .  A
C104       C3153   1.479       .  S
C104        O106   1.260       .  A
C104        O110   1.263       .  A
C108       C3173   1.482       .  S
In111       O113   2.243       .  S
In111       O114   2.255       .  S
In111       O122   2.254       .  S
In111       O116   2.275       .  S
In111       O118   2.263       .  S
In111       O119   2.226       .  S
In111       O120   2.269       .  S
In111       O123   2.271       .  S
C112       C3093   1.487       .  S
C112        O118   1.259       .  A
C112        O120   1.261       .  A
O113        C121   1.263       .  A
O114        C121   1.262       .  A
C115       C3073   1.485       .  S
C115        O122   1.258       .  A
C115        O116   1.262       .  A
C117       C3113   1.478       .  S
C117        O119   1.259       .  A
C117        O123   1.262       .  A
C121       C3133   1.480       .  S
In124       O126   2.269       .  S
In124       O127   2.250       .  S
In124       O135   2.273       .  S
In124       O129   2.271       .  S
In124       O131   2.282       .  S
In124       O132   2.259       .  S
In124       O133   2.257       .  S
In124       O136   2.260       .  S
C125       C3102   1.490       .  S
C125        O131   1.263       .  A
C125        O133   1.261       .  A
O126        C134   1.262       .  A
O127        C134   1.260       .  A
C128       C3022   1.489       .  S
C128        O135   1.258       .  A
C128        O129   1.260       .  A
C130       C3053   1.484       .  S
C130        O132   1.260       .  A
C130        O136   1.261       .  A
C134       C3033   1.484       .  S
In137       O139   2.277       .  S
In137       O140   2.233       .  S
In137       O148   2.257       .  S
In137       O142   2.235       .  S
In137       O144   2.243       .  S
In137       O145   2.270       .  S
In137       O146   2.254       .  S
In137       O149   2.234       .  S
C138       C3002   1.478       .  S
C138        O144   1.259       .  A
C138        O146   1.262       .  A
O139        C147   1.266       .  A
O140        C147   1.260       .  A
C141       C2973   1.482       .  S
C141        O148   1.266       .  A
C141        O142   1.263       .  A
C143       C3182   1.480       .  S
C143        O145   1.265       .  A
C143        O149   1.258       .  A
C147       C3062   1.486       .  S
In150       O152   2.257       .  S
In150       O153   2.267       .  S
In150       O161   2.257       .  S
In150       O155   2.227       .  S
In150       O157   2.248       .  S
In150       O158   2.280       .  S
In150       O159   2.252       .  S
In150       O162   2.254       .  S
C151       C2993   1.478       .  S
C151        O157   1.261       .  A
C151        O159   1.261       .  A
O152        C160   1.258       .  A
O153        C160   1.259       .  A
C154       C2953   1.475       .  S
C154        O161   1.264       .  A
C154        O155   1.260       .  A
C156       C3142   1.484       .  S
C156        O158   1.260       .  A
C156        O162   1.256       .  A
C160       C3242   1.483       .  S
In163       O165   2.249       .  S
In163       O166   2.257       .  S
In163       O174   2.263       .  S
In163       O168   2.284       .  S
In163       O170   2.281       .  S
In163       O171   2.250       .  S
In163       O172   2.253       .  S
In163       O175   2.252       .  S
C164       C2913   1.487       .  S
C164        O170   1.264       .  A
C164        O172   1.259       .  A
O165        C173   1.261       .  A
O166        C173   1.260       .  A
C167       C3682   1.489       .  S
C167        O174   1.257       .  A
C167        O168   1.260       .  A
C169       C3222   1.480       .  S
C169        O171   1.262       .  A
C169        O175   1.262       .  A
C173       C2933   1.479       .  S
In176       O178   2.277       .  S
In176       O179   2.234       .  S
In176       O187   2.262       .  S
In176       O181   2.282       .  S
In176       O183   2.272       .  S
In176       O184   2.246       .  S
In176       O185   2.259       .  S
In176       O188   2.256       .  S
C177       C2922   1.484       .  S
C177        O183   1.261       .  A
C177        O185   1.258       .  A
O178        C186   1.264       .  A
O179        C186   1.259       .  A
C180       C3642   1.487       .  S
C180        O187   1.256       .  A
C180        O181   1.260       .  A
C182       C2893   1.480       .  S
C182        O184   1.261       .  A
C182        O188   1.263       .  A
C186       C3162   1.482       .  S
In189       O191   2.270       .  S
In189       O192   2.249       .  S
In189       O200   2.269       .  S
In189       O194   2.277       .  S
In189       O196   2.246       .  S
In189       O197   2.267       .  S
In189       O198   2.291       .  S
In189       O201   2.253       .  S
C190       C2853   1.489       .  S
C190        O196   1.258       .  A
C190        O198   1.263       .  A
O191        C199   1.262       .  A
O192        C199   1.260       .  A
C193       C2833   1.490       .  S
C193        O200   1.259       .  A
C193        O194   1.261       .  A
C195       C2873   1.486       .  S
C195        O197   1.263       .  A
C195        O201   1.262       .  A
C199       C3122   1.483       .  S
In202       O204   2.264       .  S
In202       O205   2.251       .  S
In202       O213   2.267       .  S
In202       O207   2.281       .  S
In202       O209   2.246       .  S
In202       O210   2.269       .  S
In202       O211   2.286       .  S
In202       O214   2.249       .  S
C203       C2862   1.488       .  S
C203        O209   1.259       .  A
C203        O211   1.264       .  A
O204        C212   1.262       .  A
O205        C212   1.260       .  A
C206       C2793   1.490       .  S
C206        O213   1.258       .  A
C206        O207   1.261       .  A
C208       C3042   1.483       .  S
C208        O210   1.263       .  A
C208        O214   1.259       .  A
C212       C2813   1.483       .  S
In215       O217   2.223       .  S
In215       O218   2.267       .  S
In215       O226   2.263       .  S
In215       O220   2.242       .  S
In215       O222   2.239       .  S
In215       O223   2.231       .  S
In215       O224   2.252       .  S
In215       O227   2.264       .  S
C216       C2773   1.476       .  S
C216        O222   1.259       .  A
C216        O224   1.263       .  A
O217        C225   1.260       .  A
O218        C225   1.265       .  A
C219       C2762   1.484       .  S
C219        O226   1.264       .  A
C219        O220   1.262       .  A
C221       C2822   1.479       .  S
C221        O223   1.259       .  A
C221        O227   1.264       .  A
C225       C2902   1.478       .  S
In228       O230   2.276       .  S
In228       O231   2.261       .  S
In228       O239   2.252       .  S
In228       O233   2.241       .  S
In228       O235   2.236       .  S
In228       O236   2.267       .  S
In228       O237   2.246       .  S
In228       O240   2.260       .  S
C229       C2782   1.470       .  S
C229        O235   1.260       .  A
C229        O237   1.261       .  A
O230        C238   1.259       .  A
O231        C238   1.256       .  A
C232       C2733   1.479       .  S
C232        O239   1.265       .  A
C232        O233   1.262       .  A
C234       C2942   1.481       .  S
C234        O236   1.257       .  A
C234        O240   1.256       .  A
C238       C2882   1.485       .  S
In241       O243   2.272       .  S
In241       O244   2.239       .  S
In241       O252   2.276       .  S
In241       O246   2.270       .  S
In241       O248   2.294       .  S
In241       O249   2.263       .  S
In241       O250   2.243       .  S
In241       O253   2.249       .  S
C242       C2673   1.488       .  S
C242        O248   1.263       .  A
C242        O250   1.257       .  A
O243        C251   1.264       .  A
O244        C251   1.260       .  A
C245       C3322   1.488       .  S
C245        O252   1.258       .  A
C245        O246   1.259       .  A
C247       C2722   1.482       .  S
C247        O249   1.261       .  A
C247        O253   1.261       .  A
C251       C2702   1.484       .  S
In254       O256   2.241       .  S
In254       O257   2.246       .  S
In254       O265   2.260       .  S
In254       O259   2.271       .  S
In254       O261   2.282       .  S
In254       O262   2.247       .  S
In254       O263   2.231       .  S
In254       O266   2.248       .  S
C255       C2682   1.484       .  S
C255        O261   1.264       .  A
C255        O263   1.258       .  A
O256        C264   1.263       .  A
O257        C264   1.260       .  A
C258       C3362   1.488       .  S
C258        O265   1.259       .  A
C258        O259   1.262       .  A
C260       C2642   1.476       .  S
C260        O262   1.259       .  A
C260        O266   1.259       .  A
C264       C2653   1.476       .  S
In267       O269   2.258       .  S
In267       O270   2.253       .  S
In267       O278   2.272       .  S
In267       O272   2.264       .  S
In267       O274   2.277       .  S
In267       O275   2.258       .  S
In267       O276   2.247       .  S
In267       O279   2.264       .  S
C268       C2573   1.486       .  S
C268        O274   1.262       .  A
C268        O276   1.259       .  A
O269        C277   1.262       .  A
O270        C277   1.260       .  A
C271       C2553   1.489       .  S
C271        O278   1.260       .  A
C271        O272   1.261       .  A
C273       C2593   1.483       .  S
C273        O275   1.260       .  A
C273        O279   1.259       .  A
C277       C2613   1.482       .  S
In280       O282   2.261       .  S
In280       O283   2.242       .  S
In280       O291   2.273       .  S
In280       O285   2.282       .  S
In280       O287   2.249       .  S
In280       O288   2.250       .  S
In280       O289   2.285       .  S
In280       O292   2.259       .  S
C281       C2582   1.489       .  S
C281        O287   1.259       .  A
C281        O289   1.265       .  A
O282        C290   1.263       .  A
O283        C290   1.260       .  A
C284       C2493   1.493       .  S
C284        O291   1.258       .  A
C284        O285   1.262       .  A
C286       C2542   1.481       .  S
C286        O288   1.259       .  A
C286        O292   1.262       .  A
C290       C2513   1.480       .  S
In293       O295   2.221       .  S
In293       O296   2.270       .  S
In293       O304   2.253       .  S
In293       O298   2.237       .  S
In293       O300   2.228       .  S
In293       O301   2.218       .  S
In293       O302   2.234       .  S
In293       O305   2.275       .  S
C294       C2473   1.470       .  S
C294        O300   1.263       .  A
C294        O302   1.261       .  A
O295        C303   1.260       .  A
O296        C303   1.267       .  A
C297       C2753   1.480       .  S
C297        O304   1.265       .  A
C297        O298   1.262       .  A
C299       C2622   1.482       .  S
C299        O301   1.258       .  A
C299        O305   1.268       .  A
C303       C2713   1.480       .  S
In306       O308   2.250       .  S
In306       O309   2.263       .  S
In306       O317   2.258       .  S
In306       O311   2.230       .  S
In306       O313   2.238       .  S
In306       O314   2.281       .  S
In306       O315   2.243       .  S
In306       O318   2.222       .  S
C307       C2482   1.472       .  S
C307        O313   1.260       .  A
C307        O315   1.260       .  A
O308        C316   1.259       .  A
O309        C316   1.260       .  A
C310       C2742   1.478       .  S
C310        O317   1.264       .  A
C310        O311   1.260       .  A
C312       C2662   1.479       .  S
C312        O314   1.263       .  A
C312        O318   1.256       .  A
C316       C2533   1.482       .  S
In319       O321   2.267       .  S
In319       O322   2.245       .  S
In319       O330   2.268       .  S
In319       O324   2.269       .  S
In319       O326   2.269       .  S
In319       O327   2.256       .  S
In319       O328   2.249       .  S
In319       O331   2.256       .  S
C320       C2433   1.484       .  S
C320        O326   1.264       .  A
C320        O328   1.260       .  A
O321        C329   1.261       .  A
O322        C329   1.259       .  A
C323       C2422   1.485       .  S
C323        O330   1.257       .  A
C323        O324   1.260       .  A
C325       C2453   1.482       .  S
C325        O327   1.261       .  A
C325        O331   1.261       .  A
C329       C2602   1.481       .  S
In332       O334   2.254       .  S
In332       O335   2.262       .  S
In332       O343   2.268       .  S
In332       O337   2.284       .  S
In332       O339   2.271       .  S
In332       O340   2.272       .  S
In332       O341   2.249       .  S
In332       O344   2.247       .  S
C333       C2442   1.485       .  S
C333        O339   1.261       .  A
C333        O341   1.261       .  A
O334        C342   1.262       .  A
O335        C342   1.260       .  A
C336       C2373   1.492       .  S
C336        O343   1.259       .  A
C336        O337   1.262       .  A
C338       C2522   1.482       .  S
C338        O340   1.263       .  A
C338        O344   1.259       .  A
C342       C2393   1.483       .  S
In345       O347   2.255       .  S
In345       O348   2.261       .  S
In345       O356   2.283       .  S
In345       O350   2.270       .  S
In345       O352   2.281       .  S
In345       O353   2.244       .  S
In345       O354   2.260       .  S
In345       O357   2.262       .  S
C346       C2333   1.490       .  S
C346        O352   1.263       .  A
C346        O354   1.259       .  A
O347        C355   1.261       .  A
O348        C355   1.259       .  A
C349       C2313   1.493       .  S
C349        O356   1.260       .  A
C349        O350   1.262       .  A
C351       C2693   1.481       .  S
C351        O353   1.260       .  A
C351        O357   1.262       .  A
C355       C2353   1.482       .  S
In358       O360   2.248       .  S
In358       O361   2.262       .  S
In358       O369   2.281       .  S
In358       O363   2.272       .  S
In358       O365   2.276       .  S
In358       O366   2.260       .  S
In358       O367   2.261       .  S
In358       O370   2.241       .  S
C359       C2342   1.486       .  S
C359        O365   1.260       .  A
C359        O367   1.257       .  A
O360        C368   1.261       .  A
O361        C368   1.262       .  A
C362       C2273   1.490       .  S
C362        O369   1.258       .  A
C362        O363   1.258       .  A
C364       C2293   1.481       .  S
C364        O366   1.263       .  A
C364        O370   1.263       .  A
C368       C2633   1.481       .  S
In371       O373   2.224       .  S
In371       O374   2.267       .  S
In371       O382   2.246       .  S
In371       O376   2.261       .  S
In371       O378   2.254       .  S
In371       O379   2.279       .  S
In371       O380   2.238       .  S
In371       O383   2.225       .  S
C372       C2262   1.478       .  S
C372        O378   1.264       .  A
C372        O380   1.260       .  A
O373        C381   1.262       .  A
O374        C381   1.266       .  A
C375       C2982   1.481       .  S
C375        O382   1.262       .  A
C375        O376   1.262       .  A
C377       C2362   1.483       .  S
C377        O379   1.264       .  A
C377        O383   1.259       .  A
C381       C2462   1.481       .  S
In384       O386   2.280       .  S
In384       O387   2.245       .  S
In384       O395   2.240       .  S
In384       O389   2.242       .  S
In384       O391   2.249       .  S
In384       O392   2.264       .  S
In384       O393   2.246       .  S
In384       O396   2.256       .  S
C385       C2253   1.473       .  S
C385        O391   1.260       .  A
C385        O393   1.259       .  A
O386        C394   1.261       .  A
O387        C394   1.255       .  A
C388       C2962   1.474       .  S
C388        O395   1.264       .  A
C388        O389   1.261       .  A
C390       C2402   1.484       .  S
C390        O392   1.260       .  A
C390        O396   1.259       .  A
C394       C2302   1.483       .  S
N397        C401   1.366       .  A
N397        C398   1.364       .  A
N397       C2213   1.442       .  S
C398        C399   1.379       .  A
C398       C2282   1.481       .  S
C399        C400   1.369       .  A
C399        H402   1.083       .  S
C400        C401   1.384       .  A
C400        H403   1.083       .  S
C401       C2233   1.492       .  S
N404        C408   1.363       .  A
N404        C405   1.363       .  A
N404       C2222   1.446       .  S
C405        C406   1.382       .  A
C405       C2322   1.479       .  S
C406        C407   1.369       .  A
C406        H409   1.082       .  S
C407        C408   1.381       .  A
C407        H410   1.081       .  S
C408       C2193   1.483       .  S
N411        C415   1.362       .  A
N411        C412   1.360       .  A
N411       C2173   1.437       .  S
C412        C413   1.381       .  A
C412       C2153   1.481       .  S
C413        C414   1.372       .  A
C413        H416   1.083       .  S
C414        C415   1.382       .  A
C414        H417   1.082       .  S
C415       C2242   1.489       .  S
N418        C422   1.362       .  A
N418        C419   1.360       .  A
N418       C2182   1.444       .  S
C419        C420   1.381       .  A
C419       C2133   1.475       .  S
C420        C421   1.371       .  A
C420        H423   1.083       .  S
C421        C422   1.383       .  A
C421        H424   1.082       .  S
C422       C2202   1.485       .  S
N425        C429   1.364       .  A
N425        C426   1.365       .  A
N425       C2093   1.442       .  S
C426        C427   1.382       .  A
C426       C2502   1.484       .  S
C427        C428   1.370       .  A
C427        H430   1.083       .  S
C428        C429   1.381       .  A
C428        H431   1.083       .  S
C429       C2113   1.487       .  S
N432        C436   1.363       .  A
N432        C433   1.363       .  A
N432       C2102   1.442       .  S
C433        C434   1.382       .  A
C433       C2562   1.482       .  S
C434        C435   1.371       .  A
C434        H437   1.082       .  S
C435        C436   1.381       .  A
C435        H438   1.083       .  S
C436       C2082   1.485       .  S
N439        C443   1.363       .  A
N439        C440   1.361       .  A
N439       C2053   1.443       .  S
C440        C441   1.381       .  A
C440       C2033   1.478       .  S
C441        C442   1.370       .  A
C441        H444   1.083       .  S
C442        C443   1.383       .  A
C442        H445   1.083       .  S
C443       C2122   1.487       .  S
N446        C450   1.366       .  A
N446        C447   1.365       .  A
N446       C2062   1.442       .  S
C447        C448   1.382       .  A
C447       C2022   1.487       .  S
C448        C449   1.369       .  A
C448        H451   1.082       .  S
C449        C450   1.383       .  A
C449        H452   1.083       .  S
C450       C2073   1.493       .  S
N453        C457   1.362       .  A
N453        C454   1.361       .  A
N453       C1973   1.441       .  S
C454        C455   1.380       .  A
C454       C3082   1.476       .  S
C455        C456   1.367       .  A
C455        H458   1.083       .  S
C456        C457   1.382       .  A
C456        H459   1.083       .  S
C457       C1993   1.483       .  S
N460        C464   1.366       .  A
N460        C461   1.368       .  A
N460       C1982   1.449       .  S
C461        C462   1.384       .  A
C461       C3013   1.490       .  S
C462        C463   1.367       .  A
C462        H465   1.082       .  S
C463        C464   1.378       .  A
C463        H466   1.081       .  S
C464       C1953   1.482       .  S
N467        C471   1.360       .  A
N467        C468   1.360       .  A
N467       C1933   1.441       .  S
C468        C469   1.381       .  A
C468       C1913   1.475       .  S
C469        C470   1.370       .  A
C469        H472   1.083       .  S
C470        C471   1.383       .  A
C470        H473   1.082       .  S
C471       C2002   1.483       .  S
N474        C478   1.363       .  A
N474        C475   1.365       .  A
N474       C1942   1.447       .  S
C475        C476   1.382       .  A
C475       C1893   1.482       .  S
C476        C477   1.370       .  A
C476        H479   1.082       .  S
C477        C478   1.381       .  A
C477        H480   1.083       .  S
C478       C1962   1.484       .  S
N481        C485   1.361       .  A
N481        C482   1.359       .  A
N481       C1853   1.437       .  S
C482        C483   1.381       .  A
C482       C1833   1.479       .  S
C483        C484   1.370       .  A
C483        H486   1.083       .  S
C484        C485   1.383       .  A
C484        H487   1.083       .  S
C485       C1873   1.485       .  S
N488        C492   1.364       .  A
N488        C489   1.363       .  A
N488       C1862   1.446       .  S
C489        C490   1.381       .  A
C489       C1802   1.479       .  S
C490        C491   1.369       .  A
C490        H493   1.082       .  S
C491        C492   1.382       .  A
C491        H494   1.083       .  S
C492       C1822   1.486       .  S
N495        C499   1.363       .  A
N495        C496   1.363       .  A
N495       C1773   1.443       .  S
C496        C497   1.381       .  A
C496       C2842   1.480       .  S
C497        C498   1.370       .  A
C497        H500   1.083       .  S
C498        C499   1.384       .  A
C498        H501   1.083       .  S
C499       C1882   1.489       .  S
N502        C506   1.364       .  A
N502        C503   1.363       .  A
N502       C1782   1.447       .  S
C503        C504   1.381       .  A
C503       C2802   1.479       .  S
C504        C505   1.370       .  A
C504        H507   1.082       .  S
C505        C506   1.383       .  A
C505        H508   1.083       .  S
C506       C1813   1.485       .  S
In509       O511   2.258       .  S
In509       O512   2.239       .  S
In509       O520   2.275       .  S
In509       O514   2.268       .  S
In509       O516   2.272       .  S
In509       O517   2.262       .  S
In509       O518   2.278       .  S
In509       O521   2.252       .  S
C510       C1713   1.489       .  S
C510        O516   1.258       .  A
C510        O518   1.259       .  A
O511        C519   1.262       .  A
O512        C519   1.261       .  A
C513       C1702   1.488       .  S
C513        O520   1.259       .  A
C513        O514   1.260       .  A
C515       C1753   1.484       .  S
C515        O517   1.260       .  A
C515        O521   1.263       .  A
C519       C1733   1.479       .  S
In522       O524   2.240       .  S
In522       O525   2.265       .  S
In522       O533   2.265       .  S
In522       O527   2.274       .  S
In522       O529   2.281       .  S
In522       O530   2.273       .  S
In522       O531   2.253       .  S
In522       O534   2.249       .  S
C523       C1722   1.489       .  S
C523        O529   1.262       .  A
C523        O531   1.259       .  A
O524        C532   1.262       .  A
O525        C532   1.263       .  A
C526       C1642   1.488       .  S
C526        O533   1.257       .  A
C526        O527   1.262       .  A
C528       C1653   1.482       .  S
C528        O530   1.261       .  A
C528        O534   1.258       .  A
C532       C1673   1.482       .  S
In535       O537   2.222   1_554  S
In535       O538   2.266   1_554  S
In535       O546   2.246       .  S
In535       O540   2.240       .  S
In535       O542   2.261       .  S
In535       O543   2.265       .  S
In535       O544   2.225       .  S
In535       O547   2.223       .  S
C536       C1602   1.477       .  S
C536        O542   1.265       .  A
C536        O544   1.260       .  A
O537        C545   1.262       .  A
O538        C545   1.266       .  A
C539       C1582   1.477       .  S
C539        O546   1.263       .  A
C539        O540   1.263       .  A
C541       C1613   1.480       .  S
C541        O543   1.265       .  A
C541        O547   1.259       .  A
C545       C1762   1.481       .  S
In548       O550   2.257       .  S
In548       O551   2.279       .  S
In548       O559   2.253       .  S
In548       O553   2.239   1_554  S
In548       O555   2.252       .  S
In548       O556   2.262   1_554  S
In548       O557   2.258   1_554  S
In548       O560   2.277   1_554  S
C549       C1593   1.478       .  S
C549        O555   1.259       .  A
C549        O557   1.259   1_554  A
O550        C558   1.256       .  A
O551        C558   1.258       .  A
C552       C1542   1.481   1_554  S
C552        O559   1.266       .  A
C552        O553   1.264   1_554  A
C554       C1682   1.484       .  S
C554        O556   1.256       .  A
C554        O560   1.259       .  A
C558       C1553   1.484       .  S
In561       O563   2.261       .  S
In561       O564   2.244       .  S
In561       O572   2.269       .  S
In561       O566   2.250       .  S
In561       O568   2.262       .  S
In561       O569   2.249       .  S
In561       O570   2.249       .  S
In561       O573   2.256       .  S
C562       C1493   1.480       .  S
C562        O568   1.260       .  A
C562        O570   1.259       .  A
O563        C571   1.264       .  A
O564        C571   1.261       .  A
C565       C2142   1.482       .  S
C565        O572   1.260       .  A
C565        O566   1.260       .  A
C567       C1513   1.477       .  S
C567        O569   1.259       .  A
C567        O573   1.257       .  A
C571       C1622   1.482       .  S
In574       O576   2.266       .  S
In574       O577   2.240       .  S
In574       O585   2.267       .  S
In574       O579   2.275       .  S
In574       O581   2.271       .  S
In574       O582   2.247       .  S
In574       O583   2.263       .  S
In574       O586   2.257       .  S
C575       C1502   1.483       .  S
C575        O581   1.258       .  A
C575        O583   1.258       .  A
O576        C584   1.262       .  A
O577        C584   1.260       .  A
C578       C2162   1.488       .  S
C578        O585   1.258       .  A
C578        O579   1.261       .  A
C580       C1562   1.482       .  S
C580        O582   1.261       .  A
C580        O586   1.264       .  A
C584       C1473   1.480       .  S
In587       O589   2.256       .  S
In587       O590   2.267       .  S
In587       O598   2.296       .  S
In587       O592   2.255       .  S
In587       O594   2.296       .  S
In587       O595   2.247       .  S
In587       O596   2.241       .  S
In587       O599   2.259       .  S
C588       C1442   1.490       .  S
C588        O594   1.264       .  A
C588        O596   1.258       .  A
O589        C597   1.260       .  A
O590        C597   1.262       .  A
C591       C2013   1.494       .  S
C591        O598   1.261       .  A
C591        O592   1.259       .  A
C593       C1742   1.483       .  S
C593        O595   1.262       .  A
C593        O599   1.264       .  A
C597       C1453   1.486       .  S
In600       O602   2.263       .  S
In600       O603   2.252       .  S
In600       O611   2.260       .  S
In600       O605   2.269       .  S
In600       O607   2.293       .  S
In600       O608   2.244       .  S
In600       O609   2.240       .  S
In600       O612   2.273       .  S
C601       C1433   1.489       .  S
C601        O607   1.264       .  A
C601        O609   1.259       .  A
O602        C610   1.262       .  A
O603        C610   1.261       .  A
C604       C2042   1.485       .  S
C604        O611   1.258       .  A
C604        O605   1.262       .  A
C606       C1422   1.484       .  S
C606        O608   1.260       .  A
C606        O612   1.262       .  A
C610       C1662   1.484       .  S
In613       O615   2.239       .  S
In613       O616   2.273       .  S
In613       O624   2.250       .  S
In613       O618   2.237       .  S
In613       O620   2.242       .  S
In613       O621   2.232   1_554  S
In613       O622   2.238       .  S
In613       O625   2.282   1_554  S
C614       C1382   1.476       .  S
C614        O620   1.260       .  A
C614        O622   1.263       .  A
O615        C623   1.260       .  A
O616        C623   1.268       .  A
C617       C1353   1.479       .  S
C617        O624   1.265       .  A
C617        O618   1.263       .  A
C619       C1462   1.488       .  S
C619        O621   1.259       .  A
C619        O625   1.268       .  A
C623       C1393   1.486       .  S
In626       O628   2.270   1_554  S
In626       O629   2.260   1_554  S
In626       O637   2.274       .  S
In626       O631   2.217   1_554  S
In626       O633   2.263       .  S
In626       O634   2.249       .  S
In626       O635   2.227   1_554  S
In626       O638   2.290       .  S
C627       C1373   1.476   1_554  S
C627        O633   1.264       .  A
C627        O635   1.259   1_554  A
O628        C636   1.259       .  A
O629        C636   1.258       .  A
C630       C1313   1.478       .  S
C630        O637   1.265   1_556  A
C630        O631   1.258       .  A
C632       C1333   1.488       .  S
C632        O634   1.256       .  A
C632        O638   1.263       .  A
C636       C1413   1.484       .  S
In639       O641   2.264       .  S
In639       O642   2.233       .  S
In639       O650   2.270       .  S
In639       O644   2.272       .  S
In639       O646   2.286       .  S
In639       O647   2.248       .  S
In639       O648   2.248       .  S
In639       O651   2.264       .  S
C640       C1293   1.487       .  S
C640        O646   1.263       .  A
C640        O648   1.257       .  A
O641        C649   1.262       .  A
O642        C649   1.259       .  A
C643       C3273   1.486       .  S
C643        O650   1.258       .  A
C643        O644   1.260       .  A
C645       C1402   1.485       .  S
C645        O647   1.260       .  A
C645        O651   1.264       .  A
C649       C1522   1.476       .  S
In652       O654   2.262       .  S
In652       O655   2.260       .  S
In652       O663   2.259       .  S
In652       O657   2.279       .  S
In652       O659   2.278       .  S
In652       O660   2.236       .  S
In652       O661   2.262       .  S
In652       O664   2.256       .  S
C653       C1302   1.485       .  S
C653        O659   1.260       .  A
C653        O661   1.257       .  A
O654        C662   1.260       .  A
O655        C662   1.261       .  A
C656       C3262   1.488       .  S
C656        O663   1.258       .  A
C656        O657   1.262       .  A
C658       C1482   1.480       .  S
C658        O660   1.263       .  A
C658        O664   1.264       .  A
C662       C1342   1.485       .  S
In665       O667   2.277       .  S
In665       O668   2.252       .  S
In665       O676   2.284       .  S
In665       O670   2.271       .  S
In665       O672   2.286       .  S
In665       O673   2.252       .  S
In665       O674   2.249       .  S
In665       O677   2.264       .  S
C666       C1233   1.485       .  S
C666        O672   1.261       .  A
C666        O674   1.256       .  A
O667        C675   1.260       .  A
O668        C675   1.259       .  A
C669       C1842   1.489       .  S
C669        O676   1.259       .  A
C669        O670   1.259       .  A
C671       C1273   1.485       .  S
C671        O673   1.261       .  A
C671        O677   1.264       .  A
C675       C1253   1.484       .  S
In678       O680   2.235       .  S
In678       O681   2.265       .  S
In678       O689   2.268       .  S
In678       O683   2.260       .  S
In678       O685   2.261       .  S
In678       O686   2.248       .  S
In678       O687   2.265       .  S
In678       O690   2.246       .  S
C679       C1242   1.484       .  S
C679        O685   1.261       .  A
C679        O687   1.260       .  A
O680        C688   1.260       .  A
O681        C688   1.262       .  A
C682       C1793   1.484       .  S
C682        O689   1.259       .  A
C682        O683   1.260       .  A
C684       C1202   1.477       .  S
C684        O686   1.262       .  A
C684        O690   1.260       .  A
C688       C1213   1.478       .  S
In691       O693   2.234       .  S
In691       O694   2.254       .  S
In691       O702   2.246       .  S
In691       O696   2.233       .  S
In691       O698   2.246       .  S
In691       O699   2.269   1_554  S
In691       O700   2.224       .  S
In691       O703   2.215   1_554  S
C692       C1153   1.470       .  S
C692        O698   1.262       .  A
C692        O700   1.259       .  A
O693        C701   1.261       .  A
O694        C701   1.264       .  A
C695       C1362   1.477       .  S
C695        O702   1.264       .  A
C695        O696   1.262       .  A
C697       C1222   1.475       .  S
C697        O699   1.264       .  A
C697        O703   1.258       .  A
C701       C1173   1.476       .  S
In704       O706   2.264   1_554  S
In704       O707   2.243   1_554  S
In704       O715   2.258       .  S
In704       O709   2.235       .  S
In704       O711   2.242   1_554  S
In704       O712   2.261       .  S
In704       O713   2.244       .  S
In704       O716   2.249       .  S
C705       C1162   1.473       .  S
C705        O711   1.261   1_554  A
C705        O713   1.261       .  A
O706        C714   1.262       .  A
O707        C714   1.260       .  A
C708       C1322   1.477       .  S
C708        O715   1.263       .  A
C708        O709   1.259       .  A
C710       C1133   1.477       .  S
C710        O712   1.258       .  A
C710        O716   1.257       .  A
C714       C1282   1.482       .  S
In717       O719   2.257       .  S
In717       O720   2.232       .  S
In717       O728   2.273       .  S
In717       O722   2.259       .  S
In717       O724   2.278       .  S
In717       O725   2.252       .  S
In717       O726   2.251       .  S
In717       O729   2.254       .  S
C718       C1093   1.487       .  S
C718        O724   1.264       .  A
C718        O726   1.259       .  A
O719        C727   1.262       .  A
O720        C727   1.259       .  A
C721       C3593   1.488       .  S
C721        O728   1.260       .  A
C721        O722   1.261       .  A
C723       C1113   1.479       .  S
C723        O725   1.261       .  A
C723        O729   1.259       .  A
C727       C1142   1.474       .  S
In730       O732   2.256       .  S
In730       O733   2.257       .  S
In730       O741   2.267       .  S
In730       O735   2.272       .  S
In730       O737   2.261       .  S
In730       O738   2.261       .  S
In730       O739   2.276       .  S
In730       O742   2.241       .  S
C731       C1102   1.487       .  S
C731        O737   1.258       .  A
C731        O739   1.261       .  A
O732        C740   1.261       .  A
O733        C740   1.261       .  A
C734       C3582   1.487       .  S
C734        O741   1.257       .  A
C734        O735   1.261       .  A
C736       C1182   1.480       .  S
C736        O738   1.263       .  A
C736        O742   1.261       .  A
C740       C1082   1.482       .  S
In743       O745   2.255       .  S
In743       O746   2.250       .  S
In743       O754   2.253       .  S
In743       O748   2.269       .  S
In743       O750   2.277       .  S
In743       O751   2.241       .  S
In743       O752   2.253       .  S
In743       O755   2.270       .  S
C744       C1033   1.488       .  S
C744        O750   1.263       .  A
C744        O752   1.261       .  A
O745        C753   1.261       .  A
O746        C753   1.259       .  A
C747       C1922   1.483       .  S
C747        O754   1.257       .  A
C747        O748   1.261       .  A
C749       C1262   1.481       .  S
C749        O751   1.259       .  A
C749        O755   1.262       .  A
C753       C1053   1.479       .  S
In756       O758   2.263       .  S
In756       O759   2.239       .  S
In756       O767   2.273       .  S
In756       O761   2.267       .  S
In756       O763   2.291       .  S
In756       O764   2.259       .  S
In756       O765   2.238       .  S
In756       O768   2.257       .  S
C757       C1042   1.488       .  S
C757        O763   1.263       .  A
C757        O765   1.259       .  A
O758        C766   1.263       .  A
O759        C766   1.260       .  A
C760       C1902   1.489       .  S
C760        O767   1.259       .  A
C760        O761   1.260       .  A
C762       C1013   1.483       .  S
C762        O764   1.260       .  A
C762        O768   1.261       .  A
C766       C1193   1.480       .  S
In769       O771   2.227   1_554  S
In769       O772   2.268   1_554  S
In769       O780   2.247   1_554  S
In769       O774   2.229       .  S
In769       O776   2.232       .  S
In769       O777   2.274       .  S
In769       O778   2.251       .  S
In769       O781   2.229       .  S
C770        C973   1.473       .  S
C770        O776   1.259       .  A
C770        O778   1.261       .  A
O771        C779   1.259       .  A
O772        C779   1.265       .  A
C773       C1573   1.477       .  S
C773        O780   1.265       .  A
C773        O774   1.262   1_556  A
C775        C993   1.482       .  S
C775        O777   1.265       .  A
C775        O781   1.259       .  A
C779       C1022   1.478       .  S
In782       O784   2.254       .  S
In782       O785   2.262       .  S
In782       O793   2.266       .  S
In782       O787   2.241       .  S
In782       O789   2.228       .  S
In782       O790   2.285   1_554  S
In782       O791   2.240       .  S
In782       O794   2.228   1_554  S
C783        C982   1.473       .  S
C783        O789   1.263       .  A
C783        O791   1.264       .  A
O784        C792   1.259       .  A
O785        C792   1.259       .  A
C786       C1533   1.479       .  S
C786        O793   1.262       .  A
C786        O787   1.257       .  A
C788       C1062   1.479       .  S
C788        O790   1.262       .  A
C788        O794   1.255       .  A
C792        C953   1.480       .  S
In795       O797   2.264       .  S
In795       O798   2.235       .  S
In795       O806   2.273       .  S
In795       O800   2.270       .  S
In795       O802   2.296       .  S
In795       O803   2.233       .  S
In795       O804   2.249       .  S
In795       O807   2.264       .  S
C796        C933   1.488       .  S
C796        O802   1.262       .  A
C796        O804   1.255       .  A
O797        C805   1.264       .  A
O798        C805   1.260       .  A
C799       C3442   1.487       .  S
C799        O806   1.257       .  A
C799        O800   1.260       .  A
C801        C962   1.478       .  S
C801        O803   1.260       .  A
C801        O807   1.264       .  A
C805       C1122   1.479       .  S
In808       O810   2.242       .  S
In808       O811   2.264       .  S
In808       O819   2.269       .  S
In808       O813   2.274       .  S
In808       O815   2.276       .  S
In808       O816   2.256       .  S
In808       O817   2.269       .  S
In808       O820   2.261       .  S
C809        C942   1.487       .  S
C809        O815   1.260       .  A
C809        O817   1.257       .  A
O810        C818   1.260       .  A
O811        C818   1.264       .  A
C812       C3422   1.490       .  S
C812        O819   1.260       .  A
C812        O813   1.262       .  A
C814       C1073   1.480       .  S
C814        O816   1.259       .  A
C814        O820   1.261       .  A
C818       C1002   1.482       .  S
N821        C825   1.363       .  A
N821        C822   1.361       .  A
N821        C893   1.445       .  S
C822        C823   1.381       .  A
C822       C2413   1.476       .  S
C823        C824   1.368       .  A
C823        H826   1.082       .  S
C824        C825   1.383       .  A
C824        H827   1.082       .  S
C825        C913   1.484       .  S
N828        C832   1.361       .  A
N828        C829   1.363       .  A
N828        C902   1.439       .  S
C829        C830   1.381       .  A
C829       C2382   1.480       .  S
C830        C831   1.370       .  A
C830        H833   1.083       .  S
C831        C832   1.382       .  A
C831        H834   1.082       .  S
C832        C873   1.485       .  S
N835        C839   1.363       .  A
N835        C836   1.362       .  A
N835        C853   1.445       .  S
C836        C837   1.381       .  A
C836       C1633   1.477       .  S
C837        C838   1.370       .  A
C837        H840   1.083       .  S
C838        C839   1.382       .  A
C838        H841   1.082       .  S
C839        C882   1.485       .  S
N842        C846   1.364       .  A
N842        C843   1.361       .  A
N842        C862   1.438       .  S
C843        C844   1.382       .  A
C843       C1693   1.484       .  S
C844        C845   1.369       .  A
C844        H847   1.082       .  S
C845        C846   1.383       .  A
C845        H848   1.082       .  S
C846        C922   1.490       .  S
C849        C850   1.411       .  A
C849        C854   1.404       .  A
C849        H859   1.082       .  S
C850        C851   1.406       .  A
C850        C855   1.494       .  S
C851        C852   1.397       .  A
C851        H856   1.082       .  S
C852        C853   1.405       .  A
C852        H857   1.082       .  S
C853        C854   1.404       .  A
C854        H858   1.080       .  S
C855        C860   1.407       .  A
C855        C864   1.412       .  A
C860        C861   1.397       .  A
C860        H865   1.082       .  S
C861        C862   1.400       .  A
C861        H866   1.083       .  S
C862        C863   1.402       .  A
C863        C864   1.403       .  A
C863        H867   1.083       .  S
C864        H868   1.083       .  S
C869        C870   1.407       .  A
C869        C874   1.397       .  A
C869        H879   1.082       .  S
C870        C871   1.412       .  A
C870        C875   1.498       .  S
C871        C872   1.406       .  A
C871        H876   1.083       .  S
C872        C873   1.404       .  A
C872        H877   1.081       .  S
C873        C874   1.403       .  A
C874        H878   1.084       .  S
C875        C880   1.411       .  A
C875        C884   1.408       .  A
C880        C881   1.404       .  A
C880        H885   1.083       .  S
C881        C882   1.403       .  A
C881        H886   1.082       .  S
C882        C883   1.403       .  A
C883        C884   1.398       .  A
C883        H887   1.084       .  S
C884        H888   1.081       .  S
C889        C890   1.405       .  A
C889        C894   1.400       .  A
C889        H899   1.083       .  S
C890        C891   1.408       .  A
C890        C895   1.490       .  S
C891        C892   1.404       .  A
C891        H896   1.083       .  S
C892        C893   1.404       .  A
C892        H897   1.080       .  S
C893        C894   1.406       .  A
C894        H898   1.083       .  S
C895        C900   1.410       .  A
C895        C904   1.405       .  A
C900        C901   1.406       .  A
C900        H905   1.082       .  S
C901        C902   1.402       .  A
C901        H906   1.083       .  S
C902        C903   1.402       .  A
C903        C904   1.399       .  A
C903        H907   1.082       .  S
C904        H908   1.083       .  S
C909        C910   1.410       .  A
C909        C914   1.405       .  A
C909        H919   1.083       .  S
C910        C911   1.406       .  A
C910        C915   1.494       .  S
C911        C912   1.395       .  A
C911        H916   1.082       .  S
C912        C913   1.403       .  A
C912        H917   1.083       .  S
C913        C914   1.405       .  A
C914        H918   1.082       .  S
C915        C920   1.405       .  A
C915        C924   1.410       .  A
C920        C921   1.399       .  A
C920        H925   1.083       .  S
C921        C922   1.407       .  A
C921        H926   1.083       .  S
C922        C923   1.403       .  A
C923        C924   1.402       .  A
C923        H927   1.080       .  S
C924        H928   1.082       .  S
C929        C930   1.409       .  A
C929        C934   1.399       .  A
C929        H939   1.082       .  S
C930        C931   1.413       .  A
C930        C935   1.505       .  S
C931        C932   1.406       .  A
C931        H936   1.081       .  S
C932        C933   1.404       .  A
C932        H937   1.083       .  S
C933        C934   1.405       .  A
C934        H938   1.083       .  S
C935        C940   1.412       .  A
C935        C944   1.410       .  A
C940        C941   1.402       .  A
C940        H945   1.082       .  S
C941        C942   1.404       .  A
C941        H946   1.083       .  S
C942        C943   1.404       .  A
C943        C944   1.404       .  A
C943        H947   1.083       .  S
C944        H948   1.081       .  S
C949        C950   1.404       .  A
C949        C954   1.400       .  A
C949        H959   1.084       .  S
C950        C951   1.407       .  A
C950        C955   1.485       .  S
C951        C952   1.400       .  A
C951        H956   1.083       .  S
C952        C953   1.405       .  A
C952        H957   1.084       .  S
C953        C954   1.406       .  A
C954        H958   1.083       .  S
C955        C960   1.408       .  A
C955        C964   1.403       .  A
C960        C961   1.402       .  A
C960        H965   1.083       .  S
C961        C962   1.404       .  A
C961        H966   1.084       .  S
C962        C963   1.405       .  A
C963        C964   1.397       .  A
C963        H967   1.082       .  S
C964        H968   1.084       .  S
C969        C970   1.407       .  A
C969        C974   1.397       .  A
C969        H979   1.083       .  S
C970        C971   1.403       .  A
C970        C975   1.481       .  S
C971        C972   1.396       .  A
C971        H976   1.083       .  S
C972        C973   1.404       .  A
C972        H977   1.083       .  S
C973        C974   1.403       .  A
C974        H978   1.083       .  S
C975        C980   1.404       .  A
C975        C984   1.406       .  A
C980        C981   1.395       .  A
C980        H985   1.083       .  S
C981        C982   1.404       .  A
C981        H986   1.083       .  S
C982        C983   1.404       .  A
C983        C984   1.397       .  A
C983        H987   1.084   1_554  S
C984        H988   1.083   1_554  S
C989        C990   1.406       .  A
C989        C994   1.396       .  A
C989        H999   1.082       .  S
C990        C991   1.410       .  A
C990        C995   1.494       .  S
C991        C992   1.404       .  A
C991        H996   1.082       .  S
C992        C993   1.405       .  A
C992        H997   1.083       .  S
C993        C994   1.405       .  A
C994        H998   1.083       .  S
C995       C1000   1.409       .  A
C995       C1004   1.407       .  A
C1000      C1001   1.400       .  A
C1000      H1005   1.082       .  S
C1001      C1002   1.403       .  A
C1001      H1006   1.083       .  S
C1002      C1003   1.406       .  A
C1003      C1004   1.400       .  A
C1003      H1007   1.083       .  S
C1004      H1008   1.083       .  S
C1009      C1010   1.409       .  A
C1009      C1014   1.399       .  A
C1009      H1019   1.082       .  S
C1010      C1011   1.407       .  A
C1010      C1015   1.493       .  S
C1011      C1012   1.402       .  A
C1011      H1016   1.083       .  S
C1012      C1013   1.406       .  A
C1012      H1017   1.082       .  S
C1013      C1014   1.404       .  A
C1014      H1018   1.083       .  S
C1015      C1020   1.406       .  A
C1015      C1024   1.410       .  A
C1020      C1021   1.397       .  A
C1020      H1025   1.083       .  S
C1021      C1022   1.404       .  A
C1021      H1026   1.083       .  S
C1022      C1023   1.404       .  A
C1023      C1024   1.403       .  A
C1023      H1027   1.084       .  S
C1024      H1028   1.082       .  S
C1029      C1030   1.408       .  A
C1029      C1034   1.407       .  A
C1029      H1039   1.083       .  S
C1030      C1031   1.406       .  A
C1030      C1035   1.494       .  S
C1031      C1032   1.398       .  A
C1031      H1036   1.083       .  S
C1032      C1033   1.405       .  A
C1032      H1037   1.083       .  S
C1033      C1034   1.408       .  A
C1034      H1038   1.083       .  S
C1035      C1040   1.410       .  A
C1035      C1044   1.404       .  A
C1040      C1041   1.410       .  A
C1040      H1045   1.083       .  S
C1041      C1042   1.408       .  A
C1041      H1046   1.083       .  S
C1042      C1043   1.405       .  A
C1043      C1044   1.396       .  A
C1043      H1047   1.083       .  S
C1044      H1048   1.083       .  S
C1049      C1050   1.404       .  A
C1049      C1054   1.401       .  A
C1049      H1059   1.083       .  S
C1050      C1051   1.405       .  A
C1050      C1055   1.482       .  S
C1051      C1052   1.396       .  A
C1051      H1056   1.083       .  S
C1052      C1053   1.403       .  A
C1052      H1057   1.084       .  S
C1053      C1054   1.407       .  A
C1054      H1058   1.083       .  S
C1055      C1060   1.406       .  A
C1055      C1064   1.403       .  A
C1060      C1061   1.404       .  A
C1060      H1065   1.083       .  S
C1061      C1062   1.406       .  A
C1061      H1066   1.082       .  S
C1062      C1063   1.405       .  A
C1063      C1064   1.393       .  A
C1063      H1067   1.083       .  S
C1064      H1068   1.084       .  S
C1069      C1070   1.404       .  A
C1069      C1074   1.400       .  A
C1069      H1079   1.083       .  S
C1070      C1071   1.405       .  A
C1070      C1075   1.482   1_565  S
C1071      C1072   1.400       .  A
C1071      H1076   1.083       .  S
C1072      C1073   1.406       .  A
C1072      H1077   1.083       .  S
C1073      C1074   1.405       .  A
C1074      H1078   1.083       .  S
C1075      C1080   1.404       .  A
C1075      C1084   1.404       .  A
C1080      C1081   1.400       .  A
C1080      H1085   1.084       .  S
C1081      C1082   1.406       .  A
C1081      H1086   1.083       .  S
C1082      C1083   1.406       .  A
C1083      C1084   1.400       .  A
C1083      H1087   1.083       .  S
C1084      H1088   1.084       .  S
C1089      C1090   1.409       .  A
C1089      C1094   1.405       .  A
C1089      H1099   1.082       .  S
C1090      C1091   1.407       .  A
C1090      C1095   1.498       .  S
C1091      C1092   1.400       .  A
C1091      H1096   1.082       .  S
C1092      C1093   1.406       .  A
C1092      H1097   1.083       .  S
C1093      C1094   1.405       .  A
C1094      H1098   1.083       .  S
C1095      C1100   1.409       .  A
C1095      C1104   1.408       .  A
C1100      C1101   1.403       .  A
C1100      H1105   1.082       .  S
C1101      C1102   1.405       .  A
C1101      H1106   1.083       .  S
C1102      C1103   1.406       .  A
C1103      C1104   1.402       .  A
C1103      H1107   1.083       .  S
C1104      H1108   1.083       .  S
C1109      C1110   1.408       .  A
C1109      C1114   1.400       .  A
C1109      H1119   1.083       .  S
C1110      C1111   1.407       .  A
C1110      C1115   1.490   1_545  S
C1111      C1112   1.398       .  A
C1111      H1116   1.082       .  S
C1112      C1113   1.403       .  A
C1112      H1117   1.083       .  S
C1113      C1114   1.405       .  A
C1114      H1118   1.083       .  S
C1115      C1120   1.406       .  A
C1115      C1124   1.409       .  A
C1120      C1121   1.398       .  A
C1120      H1125   1.082       .  S
C1121      C1122   1.405       .  A
C1121      H1126   1.083       .  S
C1122      C1123   1.403       .  A
C1123      C1124   1.401       .  A
C1123      H1127   1.083       .  S
C1124      H1128   1.082       .  S
C1129      C1130   1.406       .  A
C1129      C1134   1.396       .  A
C1129      H1139   1.083       .  S
C1130      C1131   1.408       .  A
C1130      C1135   1.488       .  S
C1131      C1132   1.399       .  A
C1131      H1136   1.082       .  S
C1132      C1133   1.404       .  A
C1132      H1137   1.084       .  S
C1133      C1134   1.404       .  A
C1134      H1138   1.082       .  S
C1135      C1140   1.409       .  A
C1135      C1144   1.406       .  A
C1140      C1141   1.399       .  A
C1140      H1145   1.082       .  S
C1141      C1142   1.403       .  A
C1141      H1146   1.084       .  S
C1142      C1143   1.403       .  A
C1143      C1144   1.394       .  A
C1143      H1147   1.082       .  S
C1144      H1148   1.083       .  S
C1149      C1150   1.406       .  A
C1149      C1154   1.398       .  A
C1149      H1159   1.082       .  S
C1150      C1151   1.403       .  A
C1150      C1155   1.478       .  S
C1151      C1152   1.393       .  A
C1151      H1156   1.083       .  S
C1152      C1153   1.403       .  A
C1152      H1157   1.083       .  S
C1153      C1154   1.403       .  A
C1154      H1158   1.084       .  S
C1155      C1160   1.404   1_554  A
C1155      C1164   1.404       .  A
C1160      C1161   1.397       .  A
C1160      H1165   1.083       .  S
C1161      C1162   1.405   1_556  A
C1161      H1166   1.083       .  S
C1162      C1163   1.403       .  A
C1163      C1164   1.395       .  A
C1163      H1167   1.083       .  S
C1164      H1168   1.083       .  S
C1169      C1170   1.408       .  A
C1169      C1174   1.400       .  A
C1169      H1179   1.082       .  S
C1170      C1171   1.407       .  A
C1170      C1175   1.490       .  S
C1171      C1172   1.398       .  A
C1171      H1176   1.083       .  S
C1172      C1173   1.403       .  A
C1172      H1177   1.083       .  S
C1173      C1174   1.404       .  A
C1174      H1178   1.084       .  S
C1175      C1180   1.407       .  A
C1175      C1184   1.407       .  A
C1180      C1181   1.401       .  A
C1180      H1185   1.084       .  S
C1181      C1182   1.405       .  A
C1181      H1186   1.082       .  S
C1182      C1183   1.404       .  A
C1183      C1184   1.397       .  A
C1183      H1187   1.084       .  S
C1184      H1188   1.082       .  S
C1189      C1190   1.407   1_565  A
C1189      C1194   1.401       .  A
C1189      H1199   1.083       .  S
C1190      C1191   1.405   1_545  A
C1190      C1195   1.486       .  S
C1191      C1192   1.396       .  A
C1191      H1196   1.083   1_565  S
C1192      C1193   1.405       .  A
C1192      H1197   1.083       .  S
C1193      C1194   1.405       .  A
C1194      H1198   1.083       .  S
C1195      C1200   1.406       .  A
C1195      C1204   1.406       .  A
C1200      C1201   1.399       .  A
C1200      H1205   1.083       .  S
C1201      C1202   1.405       .  A
C1201      H1206   1.083       .  S
C1202      C1203   1.404       .  A
C1203      C1204   1.398       .  A
C1203      H1207   1.083       .  S
C1204      H1208   1.083       .  S
C1209      C1210   1.408       .  A
C1209      C1214   1.402       .  A
C1209      H1219   1.083       .  S
C1210      C1211   1.406       .  A
C1210      C1215   1.488       .  S
C1211      C1212   1.394       .  A
C1211      H1216   1.082       .  S
C1212      C1213   1.403       .  A
C1212      H1217   1.084       .  S
C1213      C1214   1.405       .  A
C1214      H1218   1.083       .  S
C1215      C1220   1.409       .  A
C1215      C1224   1.406       .  A
C1220      C1221   1.403       .  A
C1220      H1225   1.082       .  S
C1221      C1222   1.404       .  A
C1221      H1226   1.083       .  S
C1222      C1223   1.403       .  A
C1223      C1224   1.392       .  A
C1223      H1227   1.083       .  S
C1224      H1228   1.083       .  S
C1229      C1230   1.409       .  A
C1229      C1234   1.405       .  A
C1229      H1239   1.083       .  S
C1230      C1231   1.406       .  A
C1230      C1235   1.493       .  S
C1231      C1232   1.398       .  A
C1231      H1236   1.083       .  S
C1232      C1233   1.406       .  A
C1232      H1237   1.083       .  S
C1233      C1234   1.406       .  A
C1234      H1238   1.083       .  S
C1235      C1240   1.407       .  A
C1235      C1244   1.407       .  A
C1240      C1241   1.403       .  A
C1240      H1245   1.082       .  S
C1241      C1242   1.406       .  A
C1241      H1246   1.083       .  S
C1242      C1243   1.405       .  A
C1243      C1244   1.401       .  A
C1243      H1247   1.083       .  S
C1244      H1248   1.083       .  S
C1249      C1250   1.410       .  A
C1249      C1254   1.407       .  A
C1249      H1259   1.082       .  S
C1250      C1251   1.408       .  A
C1250      C1255   1.498   1_545  S
C1251      C1252   1.396       .  A
C1251      H1256   1.082       .  S
C1252      C1253   1.403       .  A
C1252      H1257   1.083       .  S
C1253      C1254   1.406       .  A
C1254      H1258   1.083       .  S
C1255      C1260   1.410       .  A
C1255      C1264   1.408       .  A
C1260      C1261   1.404       .  A
C1260      H1265   1.082       .  S
C1261      C1262   1.405       .  A
C1261      H1266   1.083       .  S
C1262      C1263   1.403       .  A
C1263      C1264   1.398       .  A
C1263      H1267   1.083       .  S
C1264      H1268   1.082       .  S
C1269      C1270   1.408       .  A
C1269      C1274   1.401       .  A
C1269      H1279   1.083       .  S
C1270      C1271   1.408       .  A
C1270      C1275   1.494       .  S
C1271      C1272   1.401       .  A
C1271      H1276   1.083       .  S
C1272      C1273   1.406       .  A
C1272      H1277   1.084       .  S
C1273      C1274   1.404       .  A
C1274      H1278   1.083       .  S
C1275      C1280   1.409       .  A
C1275      C1284   1.407       .  A
C1280      C1281   1.402       .  A
C1280      H1285   1.083       .  S
C1281      C1282   1.405       .  A
C1281      H1286   1.083       .  S
C1282      C1283   1.404       .  A
C1283      C1284   1.398       .  A
C1283      H1287   1.084       .  S
C1284      H1288   1.083       .  S
C1289      C1290   1.408       .  A
C1289      C1294   1.406   1_655  A
C1289      H1299   1.083       .  S
C1290      C1291   1.406       .  A
C1290      C1295   1.493       .  S
C1291      C1292   1.398       .  A
C1291      H1296   1.083       .  S
C1292      C1293   1.406   1_655  A
C1292      H1297   1.083   1_655  S
C1293      C1294   1.406       .  A
C1294      H1298   1.083       .  S
C1295      C1300   1.407       .  A
C1295      C1304   1.407       .  A
C1300      C1301   1.403       .  A
C1300      H1305   1.083       .  S
C1301      C1302   1.406       .  A
C1301      H1306   1.083       .  S
C1302      C1303   1.406       .  A
C1303      C1304   1.400       .  A
C1303      H1307   1.083       .  S
C1304      H1308   1.083       .  S
C1309      C1310   1.404   1_556  A
C1309      C1314   1.393       .  A
C1309      H1319   1.082       .  S
C1310      C1311   1.410       .  A
C1310      C1315   1.488       .  S
C1311      C1312   1.403       .  A
C1311      H1316   1.083       .  S
C1312      C1313   1.404   1_554  A
C1312      H1317   1.082       .  S
C1313      C1314   1.404       .  A
C1314      H1318   1.084       .  S
C1315      C1320   1.409   1_554  A
C1315      C1324   1.406       .  A
C1320      C1321   1.399       .  A
C1320      H1325   1.083       .  S
C1321      C1322   1.403   1_556  A
C1321      H1326   1.083       .  S
C1322      C1323   1.404       .  A
C1323      C1324   1.397       .  A
C1323      H1327   1.084       .  S
C1324      H1328   1.082       .  S
C1329      C1330   1.409       .  A
C1329      C1334   1.406       .  A
C1329      H1339   1.082       .  S
C1330      C1331   1.406       .  A
C1330      C1335   1.495       .  S
C1331      C1332   1.399       .  A
C1331      H1336   1.082       .  S
C1332      C1333   1.406       .  A
C1332      H1337   1.083       .  S
C1333      C1334   1.406       .  A
C1334      H1338   1.082       .  S
C1335      C1340   1.408       .  A
C1335      C1344   1.408       .  A
C1340      C1341   1.402       .  A
C1340      H1345   1.083       .  S
C1341      C1342   1.406       .  A
C1341      H1346   1.084       .  S
C1342      C1343   1.405       .  A
C1343      C1344   1.401       .  A
C1343      H1347   1.083       .  S
C1344      H1348   1.084       .  S
C1349      C1350   1.407       .  A
C1349      C1354   1.398       .  A
C1349      H1359   1.082   1_554  S
C1350      C1351   1.408       .  A
C1350      C1355   1.490       .  S
C1351      C1352   1.400       .  A
C1351      H1356   1.083       .  S
C1352      C1353   1.404       .  A
C1352      H1357   1.082       .  S
C1353      C1354   1.404       .  A
C1354      H1358   1.084   1_554  S
C1355      C1360   1.407       .  A
C1355      C1364   1.407       .  A
C1360      C1361   1.399       .  A
C1360      H1365   1.083       .  S
C1361      C1362   1.403       .  A
C1361      H1366   1.082       .  S
C1362      C1363   1.404       .  A
C1363      C1364   1.398       .  A
C1363      H1367   1.084       .  S
C1364      H1368   1.082       .  S
C1369      C1370   1.405   1_556  A
C1369      C1374   1.394       .  A
C1369      H1379   1.083       .  S
C1370      C1371   1.408       .  A
C1370      C1375   1.486       .  S
C1371      C1372   1.401       .  A
C1371      H1376   1.082       .  S
C1372      C1373   1.404   1_554  A
C1372      H1377   1.083       .  S
C1373      C1374   1.404       .  A
C1374      H1378   1.083       .  S
C1375      C1380   1.406       .  A
C1375      C1384   1.406       .  A
C1380      C1381   1.394   1_655  A
C1380      H1385   1.083       .  S
C1381      C1382   1.401       .  A
C1381      H1386   1.083       .  S
C1382      C1383   1.406       .  A
C1383      C1384   1.400   1_455  A
C1383      H1387   1.083       .  S
C1384      H1388   1.083       .  S
C1389      C1390   1.408       .  A
C1389      C1394   1.401       .  A
C1389      H1399   1.083       .  S
C1390      C1391   1.410       .  A
C1390      C1395   1.499       .  S
C1391      C1392   1.404       .  A
C1391      H1396   1.082       .  S
C1392      C1393   1.404       .  A
C1392      H1397   1.083       .  S
C1393      C1394   1.406       .  A
C1394      H1398   1.083       .  S
C1395      C1400   1.410       .  A
C1395      C1404   1.408       .  A
C1400      C1401   1.402       .  A
C1400      H1405   1.082       .  S
C1401      C1402   1.403       .  A
C1401      H1406   1.083       .  S
C1402      C1403   1.406       .  A
C1403      C1404   1.402       .  A
C1403      H1407   1.082       .  S
C1404      H1408   1.083       .  S
C1409      C1410   1.408       .  A
C1409      C1414   1.399       .  A
C1409      H1419   1.082       .  S
C1410      C1411   1.407       .  A
C1410      C1415   1.492       .  S
C1411      C1412   1.403       .  A
C1411      H1416   1.084       .  S
C1412      C1413   1.407       .  A
C1412      H1417   1.083       .  S
C1413      C1414   1.404       .  A
C1414      H1418   1.084       .  S
C1415      C1420   1.405       .  A
C1415      C1424   1.409       .  A
C1420      C1421   1.398       .  A
C1420      H1425   1.083       .  S
C1421      C1422   1.405       .  A
C1421      H1426   1.082       .  S
C1422      C1423   1.406       .  A
C1423      C1424   1.404       .  A
C1423      H1427   1.083       .  S
C1424      H1428   1.082       .  S
C1429      C1430   1.412       .  A
C1429      C1434   1.410       .  A
C1429      H1439   1.082       .  S
C1430      C1431   1.408       .  A
C1430      C1435   1.504       .  S
C1431      C1432   1.396       .  A
C1431      H1436   1.082       .  S
C1432      C1433   1.403       .  A
C1432      H1437   1.083       .  S
C1433      C1434   1.407       .  A
C1434      H1438   1.083       .  S
C1435      C1440   1.412       .  A
C1435      C1444   1.408       .  A
C1440      C1441   1.410   1_655  A
C1440      H1445   1.082       .  S
C1441      C1442   1.407       .  A
C1441      H1446   1.083       .  S
C1442      C1443   1.404   1_455  A
C1443      C1444   1.396       .  A
C1443      H1447   1.083   1_655  S
C1444      H1448   1.082       .  S
C1449      C1450   1.409       .  A
C1449      C1454   1.401       .  A
C1449      H1459   1.083       .  S
C1450      C1451   1.408       .  A
C1450      C1455   1.498       .  S
C1451      C1452   1.403       .  A
C1451      H1456   1.083       .  S
C1452      C1453   1.406       .  A
C1452      H1457   1.083       .  S
C1453      C1454   1.405       .  A
C1454      H1458   1.084       .  S
C1455      C1460   1.410       .  A
C1455      C1464   1.406       .  A
C1460      C1461   1.406       .  A
C1460      H1465   1.082       .  S
C1461      C1462   1.405       .  A
C1461      H1466   1.083       .  S
C1462      C1463   1.407       .  A
C1463      C1464   1.399       .  A
C1463      H1467   1.083       .  S
C1464      H1468   1.083       .  S
C1469      C1470   1.406       .  A
C1469      C1474   1.395       .  A
C1469      H1479   1.082       .  S
C1470      C1471   1.407       .  A
C1470      C1475   1.489       .  S
C1471      C1472   1.403       .  A
C1471      H1476   1.083       .  S
C1472      C1473   1.405       .  A
C1472      H1477   1.083       .  S
C1473      C1474   1.403       .  A
C1474      H1478   1.083       .  S
C1475      C1480   1.406       .  A
C1475      C1484   1.407       .  A
C1480      C1481   1.396       .  A
C1480      H1485   1.083       .  S
C1481      C1482   1.404       .  A
C1481      H1486   1.084       .  S
C1482      C1483   1.406       .  A
C1483      C1484   1.402       .  A
C1483      H1487   1.083       .  S
C1484      H1488   1.083       .  S
C1489      C1490   1.407       .  A
C1489      C1494   1.403   1_655  A
C1489      H1499   1.083       .  S
C1490      C1491   1.406       .  A
C1490      C1495   1.488       .  S
C1491      C1492   1.396       .  A
C1491      H1496   1.083       .  S
C1492      C1493   1.403   1_655  A
C1492      H1497   1.083   1_655  S
C1493      C1494   1.406       .  A
C1494      H1498   1.083       .  S
C1495      C1500   1.406       .  A
C1495      C1504   1.406       .  A
C1500      C1501   1.403       .  A
C1500      H1505   1.083       .  S
C1501      C1502   1.407       .  A
C1501      H1506   1.083       .  S
C1502      C1503   1.404       .  A
C1503      C1504   1.398       .  A
C1503      H1507   1.083       .  S
C1504      H1508   1.083       .  S
C1509      C1510   1.405       .  A
C1509      C1514   1.395       .  A
C1509      H1519   1.083       .  S
C1510      C1511   1.406       .  A
C1510      C1515   1.485       .  S
C1511      C1512   1.400       .  A
C1511      H1516   1.083       .  S
C1512      C1513   1.406       .  A
C1512      H1517   1.083       .  S
C1513      C1514   1.403       .  A
C1514      H1518   1.083       .  S
C1515      C1520   1.405       .  A
C1515      C1524   1.407       .  A
C1520      C1521   1.394       .  A
C1520      H1525   1.083       .  S
C1521      C1522   1.404       .  A
C1521      H1526   1.083       .  S
C1522      C1523   1.404       .  A
C1523      C1524   1.401       .  A
C1523      H1527   1.083       .  S
C1524      H1528   1.083       .  S
C1529      C1530   1.410   1_554  A
C1529      C1534   1.400       .  A
C1529      H1539   1.082       .  S
C1530      C1531   1.408       .  A
C1530      C1535   1.497       .  S
C1531      C1532   1.400       .  A
C1531      H1536   1.081       .  S
C1532      C1533   1.405   1_556  A
C1532      H1537   1.084       .  S
C1533      C1534   1.402       .  A
C1534      H1538   1.082       .  S
C1535      C1540   1.408       .  A
C1535      C1544   1.410   1_556  A
C1540      C1541   1.398       .  A
C1540      H1545   1.081       .  S
C1541      C1542   1.403       .  A
C1541      H1546   1.084       .  S
C1542      C1543   1.405   1_556  A
C1543      C1544   1.402       .  A
C1543      H1547   1.082       .  S
C1544      H1548   1.083       .  S
C1549      C1550   1.410       .  A
C1549      C1554   1.403       .  A
C1549      H1559   1.082       .  S
C1550      C1551   1.407       .  A
C1550      C1555   1.496       .  S
C1551      C1552   1.399       .  A
C1551      H1556   1.083       .  S
C1552      C1553   1.405       .  A
C1552      H1557   1.083       .  S
C1553      C1554   1.405       .  A
C1554      H1558   1.083       .  S
C1555      C1560   1.407       .  A
C1555      C1564   1.410       .  A
C1560      C1561   1.401       .  A
C1560      H1565   1.082       .  S
C1561      C1562   1.406       .  A
C1561      H1566   1.083       .  S
C1562      C1563   1.403       .  A
C1563      C1564   1.400       .  A
C1563      H1567   1.083       .  S
C1564      H1568   1.082       .  S
C1569      C1570   1.408       .  A
C1569      C1574   1.398       .  A
C1569      H1579   1.083       .  S
C1570      C1571   1.407   1_556  A
C1570      C1575   1.491       .  S
C1571      C1572   1.397       .  A
C1571      H1576   1.082       .  S
C1572      C1573   1.404   1_554  A
C1572      H1577   1.084       .  S
C1573      C1574   1.403       .  A
C1574      H1578   1.082       .  S
C1575      C1580   1.408   1_556  A
C1575      C1584   1.408       .  A
C1580      C1581   1.397       .  A
C1580      H1585   1.082       .  S
C1581      C1582   1.402       .  A
C1581      H1586   1.084       .  S
C1582      C1583   1.404   1_554  A
C1583      C1584   1.400       .  A
C1583      H1587   1.082       .  S
C1584      H1588   1.083       .  S
C1589      C1590   1.405       .  A
C1589      C1594   1.398       .  A
C1589      H1599   1.082       .  S
C1590      C1591   1.407   1_554  A
C1590      C1595   1.486       .  S
C1591      C1592   1.398       .  A
C1591      H1596   1.083       .  S
C1592      C1593   1.404   1_556  A
C1592      H1597   1.082       .  S
C1593      C1594   1.404       .  A
C1594      H1598   1.083       .  S
C1595      C1600   1.408       .  A
C1595      C1604   1.404       .  A
C1600      C1601   1.400   1_655  A
C1600      H1605   1.082       .  S
C1601      C1602   1.403       .  A
C1601      H1606   1.083       .  S
C1602      C1603   1.405       .  A
C1603      C1604   1.396   1_455  A
C1603      H1607   1.084       .  S
C1604      H1608   1.083       .  S
C1609      C1610   1.410       .  A
C1609      C1614   1.403       .  A
C1609      H1619   1.082       .  S
C1610      C1611   1.405       .  A
C1610      C1615   1.492       .  S
C1611      C1612   1.395       .  A
C1611      H1616   1.083       .  S
C1612      C1613   1.404       .  A
C1612      H1617   1.083       .  S
C1613      C1614   1.404       .  A
C1614      H1618   1.083       .  S
C1615      C1620   1.407       .  A
C1615      C1624   1.409       .  A
C1620      C1621   1.400       .  A
C1620      H1625   1.083       .  S
C1621      C1622   1.406       .  A
C1621      H1626   1.083       .  S
C1622      C1623   1.403       .  A
C1623      C1624   1.400       .  A
C1623      H1627   1.084       .  S
C1624      H1628   1.082       .  S
C1629      C1630   1.409       .  A
C1629      C1634   1.402       .  A
C1629      H1639   1.082       .  S
C1630      C1631   1.409       .  A
C1630      C1635   1.498       .  S
C1631      C1632   1.401       .  A
C1631      H1636   1.083       .  S
C1632      C1633   1.403       .  A
C1632      H1637   1.083       .  S
C1633      C1634   1.403       .  A
C1634      H1638   1.084       .  S
C1635      C1640   1.408       .  A
C1635      C1644   1.409       .  A
C1640      C1641   1.405       .  A
C1640      H1645   1.083       .  S
C1641      C1642   1.408       .  A
C1641      H1646   1.083       .  S
C1642      C1643   1.403       .  A
C1643      C1644   1.400       .  A
C1643      H1647   1.083       .  S
C1644      H1648   1.082       .  S
C1649      C1650   1.406       .  A
C1649      C1654   1.398       .  A
C1649      H1659   1.083       .  S
C1650      C1651   1.408       .  A
C1650      C1655   1.492       .  S
C1651      C1652   1.403       .  A
C1651      H1656   1.083       .  S
C1652      C1653   1.405       .  A
C1652      H1657   1.083       .  S
C1653      C1654   1.404       .  A
C1654      H1658   1.083       .  S
C1655      C1660   1.408       .  A
C1655      C1664   1.407       .  A
C1660      C1661   1.401       .  A
C1660      H1665   1.083       .  S
C1661      C1662   1.405       .  A
C1661      H1666   1.083       .  S
C1662      C1663   1.406       .  A
C1663      C1664   1.401       .  A
C1663      H1667   1.083       .  S
C1664      H1668   1.083       .  S
C1669      C1670   1.409       .  A
C1669      C1674   1.404       .  A
C1669      H1679   1.083       .  S
C1670      C1671   1.408       .  A
C1670      C1675   1.496       .  S
C1671      C1672   1.397       .  A
C1671      H1676   1.082       .  S
C1672      C1673   1.403       .  A
C1672      H1677   1.083       .  S
C1673      C1674   1.405       .  A
C1674      H1678   1.083       .  S
C1675      C1680   1.408       .  A
C1675      C1684   1.409       .  A
C1680      C1681   1.399       .  A
C1680      H1685   1.083       .  S
C1681      C1682   1.405       .  A
C1681      H1686   1.083       .  S
C1682      C1683   1.405       .  A
C1683      C1684   1.403       .  A
C1683      H1687   1.083       .  S
C1684      H1688   1.082       .  S
C1689      C1690   1.405       .  A
C1689      C1694   1.398       .  A
C1689      H1699   1.083       .  S
C1690      C1691   1.409       .  A
C1690      C1695   1.493       .  S
C1691      C1692   1.405       .  A
C1691      H1696   1.083       .  S
C1692      C1693   1.404       .  A
C1692      H1697   1.082       .  S
C1693      C1694   1.405       .  A
C1694      H1698   1.084       .  S
C1695      C1700   1.408       .  A
C1695      C1704   1.406       .  A
C1700      C1701   1.400       .  A
C1700      H1705   1.082       .  S
C1701      C1702   1.404       .  A
C1701      H1706   1.083       .  S
C1702      C1703   1.408       .  A
C1703      C1704   1.405       .  A
C1703      H1707   1.082       .  S
C1704      H1708   1.083       .  S
C1709      C1710   1.409       .  A
C1709      C1714   1.404       .  A
C1709      H1719   1.083       .  S
C1710      C1711   1.410       .  A
C1710      C1715   1.501       .  S
C1711      C1712   1.403       .  A
C1711      H1716   1.082       .  S
C1712      C1713   1.405   1_655  A
C1712      H1717   1.083   1_655  S
C1713      C1714   1.407   1_455  A
C1714      H1718   1.083   1_655  S
C1715      C1720   1.411       .  A
C1715      C1724   1.408       .  A
C1720      C1721   1.406       .  A
C1720      H1725   1.083       .  S
C1721      C1722   1.406       .  A
C1721      H1726   1.083       .  S
C1722      C1723   1.405       .  A
C1723      C1724   1.400       .  A
C1723      H1727   1.083       .  S
C1724      H1728   1.082       .  S
C1729      C1730   1.407       .  A
C1729      C1734   1.398       .  A
C1729      H1739   1.083       .  S
C1730      C1731   1.408       .  A
C1730      C1735   1.491       .  S
C1731      C1732   1.400       .  A
C1731      H1736   1.083       .  S
C1732      C1733   1.404       .  A
C1732      H1737   1.083       .  S
C1733      C1734   1.404       .  A
C1734      H1738   1.083       .  S
C1735      C1740   1.407       .  A
C1735      C1744   1.407       .  A
C1740      C1741   1.400       .  A
C1740      H1745   1.083       .  S
C1741      C1742   1.406       .  A
C1741      H1746   1.083       .  S
C1742      C1743   1.404       .  A
C1743      C1744   1.400       .  A
C1743      H1747   1.083       .  S
C1744      H1748   1.083       .  S
C1749      C1750   1.409       .  A
C1749      C1754   1.405       .  A
C1749      H1759   1.083       .  S
C1750      C1751   1.409       .  A
C1750      C1755   1.496       .  S
C1751      C1752   1.396       .  A
C1751      H1756   1.082       .  S
C1752      C1753   1.401       .  A
C1752      H1757   1.083       .  S
C1753      C1754   1.408       .  A
C1754      H1758   1.083       .  S
C1755      C1760   1.406       .  A
C1755      C1764   1.411       .  A
C1760      C1761   1.394       .  A
C1760      H1765   1.083       .  S
C1761      C1762   1.403       .  A
C1761      H1766   1.082       .  S
C1762      C1763   1.405       .  A
C1763      C1764   1.406       .  A
C1763      H1767   1.084       .  S
C1764      H1768   1.082       .  S
C1769      C1770   1.406       .  A
C1769      C1774   1.401   1_455  A
C1769      H1779   1.083       .  S
C1770      C1771   1.411       .  A
C1770      C1775   1.496       .  S
C1771      C1772   1.406   1_455  A
C1771      H1776   1.083       .  S
C1772      C1773   1.403       .  A
C1772      H1777   1.082       .  S
C1773      C1774   1.404       .  A
C1774      H1778   1.083       .  S
C1775      C1780   1.411       .  A
C1775      C1784   1.405       .  A
C1780      C1781   1.408       .  A
C1780      H1785   1.082       .  S
C1781      C1782   1.404       .  A
C1781      H1786   1.082       .  S
C1782      C1783   1.406       .  A
C1783      C1784   1.400       .  A
C1783      H1787   1.082       .  S
C1784      H1788   1.083       .  S
C1789      C1790   1.408       .  A
C1789      C1794   1.400       .  A
C1789      H1799   1.082       .  S
C1790      C1791   1.407       .  A
C1790      C1795   1.495       .  S
C1791      C1792   1.405       .  A
C1791      H1796   1.083       .  S
C1792      C1793   1.407       .  A
C1792      H1797   1.083       .  S
C1793      C1794   1.404       .  A
C1794      H1798   1.084       .  S
C1795      C1800   1.408       .  A
C1795      C1804   1.406       .  A
C1800      C1801   1.403       .  A
C1800      H1805   1.082       .  S
C1801      C1802   1.402       .  A
C1801      H1806   1.084       .  S
C1802      C1803   1.406       .  A
C1803      C1804   1.403       .  A
C1803      H1807   1.083       .  S
C1804      H1808   1.083       .  S
C1809      C1810   1.408       .  A
C1809      C1814   1.402       .  A
C1809      H1819   1.083       .  S
C1810      C1811   1.406       .  A
C1810      C1815   1.490       .  S
C1811      C1812   1.398       .  A
C1811      H1816   1.083       .  S
C1812      C1813   1.405       .  A
C1812      H1817   1.083       .  S
C1813      C1814   1.404       .  A
C1814      H1818   1.082       .  S
C1815      C1820   1.406       .  A
C1815      C1824   1.408       .  A
C1820      C1821   1.397       .  A
C1820      H1825   1.082       .  S
C1821      C1822   1.404       .  A
C1821      H1826   1.084       .  S
C1822      C1823   1.405       .  A
C1823      C1824   1.404       .  A
C1823      H1827   1.082       .  S
C1824      H1828   1.084       .  S
C1829      C1830   1.407       .  A
C1829      C1834   1.398       .  A
C1829      H1839   1.083       .  S
C1830      C1831   1.409       .  A
C1830      C1835   1.497       .  S
C1831      C1832   1.406       .  A
C1831      H1836   1.082       .  S
C1832      C1833   1.403       .  A
C1832      H1837   1.083       .  S
C1833      C1834   1.403       .  A
C1834      H1838   1.083       .  S
C1835      C1840   1.408       .  A
C1835      C1844   1.408       .  A
C1840      C1841   1.399       .  A
C1840      H1845   1.082       .  S
C1841      C1842   1.403       .  A
C1841      H1846   1.083       .  S
C1842      C1843   1.409       .  A
C1843      C1844   1.408       .  A
C1843      H1847   1.082       .  S
C1844      H1848   1.083       .  S
C1849      C1850   1.412       .  A
C1849      C1854   1.403   1_455  A
C1849      H1859   1.083       .  S
C1850      C1851   1.407       .  A
C1850      C1855   1.495       .  S
C1851      C1852   1.399   1_455  A
C1851      H1856   1.083       .  S
C1852      C1853   1.402       .  A
C1852      H1857   1.083       .  S
C1853      C1854   1.400       .  A
C1854      H1858   1.082       .  S
C1855      C1860   1.404       .  A
C1855      C1864   1.412       .  A
C1860      C1861   1.395       .  A
C1860      H1865   1.083       .  S
C1861      C1862   1.404       .  A
C1861      H1866   1.082       .  S
C1862      C1863   1.404       .  A
C1863      C1864   1.408       .  A
C1863      H1867   1.083       .  S
C1864      H1868   1.083       .  S
C1869      C1870   1.407       .  A
C1869      C1874   1.397       .  A
C1869      H1879   1.082       .  S
C1870      C1871   1.412       .  A
C1870      C1875   1.499       .  S
C1871      C1872   1.406       .  A
C1871      H1876   1.083       .  S
C1872      C1873   1.404       .  A
C1872      H1877   1.083       .  S
C1873      C1874   1.404       .  A
C1874      H1878   1.084       .  S
C1875      C1880   1.411       .  A
C1875      C1884   1.407       .  A
C1880      C1881   1.404       .  A
C1880      H1885   1.082       .  S
C1881      C1882   1.404       .  A
C1881      H1886   1.082       .  S
C1882      C1883   1.405       .  A
C1883      C1884   1.398       .  A
C1883      H1887   1.083       .  S
C1884      H1888   1.082       .  S
C1889      C1890   1.410       .  A
C1889      C1894   1.403       .  A
C1889      H1899   1.082       .  S
C1890      C1891   1.410       .  A
C1890      C1895   1.503       .  S
C1891      C1892   1.404       .  A
C1891      H1896   1.082       .  S
C1892      C1893   1.404       .  A
C1892      H1897   1.083       .  S
C1893      C1894   1.403       .  A
C1894      H1898   1.084       .  S
C1895      C1900   1.410       .  A
C1895      C1904   1.410       .  A
C1900      C1901   1.402       .  A
C1900      H1905   1.081       .  S
C1901      C1902   1.404       .  A
C1901      H1906   1.084       .  S
C1902      C1903   1.407       .  A
C1903      C1904   1.405       .  A
C1903      H1907   1.082       .  S
C1904      H1908   1.083       .  S
C1909      C1910   1.407       .  A
C1909      C1914   1.401       .  A
C1909      H1919   1.084       .  S
C1910      C1911   1.409       .  A
C1910      C1915   1.495       .  S
C1911      C1912   1.402       .  A
C1911      H1916   1.081       .  S
C1912      C1913   1.403       .  A
C1912      H1917   1.084       .  S
C1913      C1914   1.403       .  A
C1914      H1918   1.083       .  S
C1915      C1920   1.410       .  A
C1915      C1924   1.406       .  A
C1920      C1921   1.401       .  A
C1920      H1925   1.082       .  S
C1921      C1922   1.403       .  A
C1921      H1926   1.083       .  S
C1922      C1923   1.406       .  A
C1923      C1924   1.402       .  A
C1923      H1927   1.082       .  S
C1924      H1928   1.083       .  S
C1929      C1930   1.409       .  A
C1929      C1934   1.405   1_455  A
C1929      H1939   1.082       .  S
C1930      C1931   1.405       .  A
C1930      C1935   1.490       .  S
C1931      C1932   1.399   1_455  A
C1931      H1936   1.083       .  S
C1932      C1933   1.404       .  A
C1932      H1937   1.083       .  S
C1933      C1934   1.402       .  A
C1934      H1938   1.083       .  S
C1935      C1940   1.404       .  A
C1935      C1944   1.408       .  A
C1940      C1941   1.400       .  A
C1940      H1945   1.083       .  S
C1941      C1942   1.408       .  A
C1941      H1946   1.084       .  S
C1942      C1943   1.404       .  A
C1943      C1944   1.405       .  A
C1943      H1947   1.080       .  S
C1944      H1948   1.083       .  S
C1949      C1950   1.411       .  A
C1949      C1954   1.408       .  A
C1949      H1959   1.083       .  S
C1950      C1951   1.406       .  A
C1950      C1955   1.494       .  S
C1951      C1952   1.394       .  A
C1951      H1956   1.084       .  S
C1952      C1953   1.402       .  A
C1952      H1957   1.083       .  S
C1953      C1954   1.404       .  A
C1954      H1958   1.083       .  S
C1955      C1960   1.409       .  A
C1955      C1964   1.407       .  A
C1960      C1961   1.405       .  A
C1960      H1965   1.083       .  S
C1961      C1962   1.404       .  A
C1961      H1966   1.082       .  S
C1962      C1963   1.403       .  A
C1963      C1964   1.398       .  A
C1963      H1967   1.083       .  S
C1964      H1968   1.083       .  S
C1969      C1970   1.408       .  A
C1969      C1974   1.401       .  A
C1969      H1979   1.082       .  S
C1970      C1971   1.411       .  A
C1970      C1975   1.498       .  S
C1971      C1972   1.405   1_455  A
C1971      H1976   1.082       .  S
C1972      C1973   1.403       .  A
C1972      H1977   1.083       .  S
C1973      C1974   1.402   1_655  A
C1974      H1978   1.083   1_455  S
C1975      C1980   1.408       .  A
C1975      C1984   1.409       .  A
C1980      C1981   1.405       .  A
C1980      H1985   1.083       .  S
C1981      C1982   1.407       .  A
C1981      H1986   1.083       .  S
C1982      C1983   1.405       .  A
C1983      C1984   1.401       .  A
C1983      H1987   1.082       .  S
C1984      H1988   1.082       .  S
C1989      C1990   1.407       .  A
C1989      C1994   1.396       .  A
C1989      H1999   1.081       .  S
C1990      C1991   1.410       .  A
C1990      C1995   1.496       .  S
C1991      C1992   1.402       .  A
C1991      H1996   1.083       .  S
C1992      C1993   1.403       .  A
C1992      H1997   1.080       .  S
C1993      C1994   1.404       .  A
C1994      H1998   1.084       .  S
C1995      C2000   1.410       .  A
C1995      C2004   1.408       .  A
C2000      C2001   1.402       .  A
C2000      H2005   1.082       .  S
C2001      C2002   1.404       .  A
C2001      H2006   1.082       .  S
C2002      C2003   1.403       .  A
C2003      C2004   1.396       .  A
C2003      H2007   1.083       .  S
C2004      H2008   1.082       .  S
C2009      C2010   1.409       .  A
C2009      C2014   1.399       .  A
C2009      H2019   1.082       .  S
C2010      C2011   1.411       .  A
C2010      C2015   1.505       .  S
C2011      C2012   1.411       .  A
C2011      H2016   1.083       .  S
C2012      C2013   1.409       .  A
C2012      H2017   1.082       .  S
C2013      C2014   1.404       .  A
C2014      H2018   1.084       .  S
C2015      C2020   1.409       .  A
C2015      C2024   1.411       .  A
C2020      C2021   1.401       .  A
C2020      H2025   1.082       .  S
C2021      C2022   1.404       .  A
C2021      H2026   1.085       .  S
C2022      C2023   1.406       .  A
C2023      C2024   1.410       .  A
C2023      H2027   1.081       .  S
C2024      H2028   1.083       .  S
C2029      C2030   1.406       .  A
C2029      C2034   1.400       .  A
C2029      H2039   1.084       .  S
C2030      C2031   1.408       .  A
C2030      C2035   1.491       .  S
C2031      C2032   1.403       .  A
C2031      H2036   1.082       .  S
C2032      C2033   1.404       .  A
C2032      H2037   1.084       .  S
C2033      C2034   1.404       .  A
C2034      H2038   1.082       .  S
C2035      C2040   1.406       .  A
C2035      C2044   1.408       .  A
C2040      C2041   1.402       .  A
C2040      H2045   1.084       .  S
C2041      C2042   1.407       .  A
C2041      H2046   1.082       .  S
C2042      C2043   1.404       .  A
C2043      C2044   1.402       .  A
C2043      H2047   1.084       .  S
C2044      H2048   1.082       .  S
C2049      C2050   1.411       .  A
C2049      C2054   1.406       .  A
C2049      H2059   1.084       .  S
C2050      C2051   1.406       .  A
C2050      C2055   1.494       .  S
C2051      C2052   1.399       .  A
C2051      H2056   1.082       .  S
C2052      C2053   1.403       .  A
C2052      H2057   1.084       .  S
C2053      C2054   1.403       .  A
C2054      H2058   1.081       .  S
C2055      C2060   1.406       .  A
C2055      C2064   1.411       .  A
C2060      C2061   1.399       .  A
C2060      H2065   1.083       .  S
C2061      C2062   1.403       .  A
C2061      H2066   1.082       .  S
C2062      C2063   1.403       .  A
C2063      C2064   1.405       .  A
C2063      H2067   1.082       .  S
C2064      H2068   1.082       .  S
C2069      C2070   1.405       .  A
C2069      C2074   1.399       .  A
C2069      H2079   1.084       .  S
C2070      C2071   1.411       .  A
C2070      C2075   1.497       .  S
C2071      C2072   1.408       .  A
C2071      H2076   1.082       .  S
C2072      C2073   1.405       .  A
C2072      H2077   1.084       .  S
C2073      C2074   1.407       .  A
C2074      H2078   1.083       .  S
C2075      C2080   1.410       .  A
C2075      C2084   1.407       .  A
C2080      C2081   1.406       .  A
C2080      H2085   1.083       .  S
C2081      C2082   1.404       .  A
C2081      H2086   1.083       .  S
C2082      C2083   1.405       .  A
C2083      C2084   1.401       .  A
C2083      H2087   1.083       .  S
C2084      H2088   1.083       .  S
C2089      C2090   1.406       .  A
C2089      C2094   1.399       .  A
C2089      H2099   1.083       .  S
C2090      C2091   1.410       .  A
C2090      C2095   1.493       .  S
C2091      C2092   1.406       .  A
C2091      H2096   1.083       .  S
C2092      C2093   1.403       .  A
C2092      H2097   1.082       .  S
C2093      C2094   1.403       .  A
C2094      H2098   1.084       .  S
C2095      C2100   1.410       .  A
C2095      C2104   1.406       .  A
C2100      C2101   1.405       .  A
C2100      H2105   1.082       .  S
C2101      C2102   1.402       .  A
C2101      H2106   1.082       .  S
C2102      C2103   1.404       .  A
C2103      C2104   1.401       .  A
C2103      H2107   1.082       .  S
C2104      H2108   1.083       .  S
C2109      C2110   1.407       .  A
C2109      C2114   1.400       .  A
C2109      H2119   1.083       .  S
C2110      C2111   1.411       .  A
C2110      C2115   1.498       .  S
C2111      C2112   1.406       .  A
C2111      H2116   1.083       .  S
C2112      C2113   1.404       .  A
C2112      H2117   1.082       .  S
C2113      C2114   1.405       .  A
C2114      H2118   1.083       .  S
C2115      C2120   1.411       .  A
C2115      C2124   1.407       .  A
C2120      C2121   1.406       .  A
C2120      H2125   1.083       .  S
C2121      C2122   1.404       .  A
C2121      H2126   1.083       .  S
C2122      C2123   1.405       .  A
C2123      C2124   1.399       .  A
C2123      H2127   1.084       .  S
C2124      H2128   1.082       .  S
C2129      C2130   1.406       .  A
C2129      C2134   1.402       .  A
C2129      H2139   1.083       .  S
C2130      C2131   1.405       .  A
C2130      C2135   1.487       .  S
C2131      C2132   1.400       .  A
C2131      H2136   1.084       .  S
C2132      C2133   1.404       .  A
C2132      H2137   1.083       .  S
C2133      C2134   1.403       .  A
C2134      H2138   1.083       .  S
C2135      C2140   1.406       .  A
C2135      C2144   1.406       .  A
C2140      C2141   1.404       .  A
C2140      H2145   1.083       .  S
C2141      C2142   1.407       .  A
C2141      H2146   1.082       .  S
C2142      C2143   1.404       .  A
C2143      C2144   1.398       .  A
C2143      H2147   1.083       .  S
C2144      H2148   1.083       .  S
C2149      C2150   1.409       .  A
C2149      C2154   1.406       .  A
C2149      H2159   1.082       .  S
C2150      C2151   1.407       .  A
C2150      C2155   1.496       .  S
C2151      C2152   1.401       .  A
C2151      H2156   1.083       .  S
C2152      C2153   1.404       .  A
C2152      H2157   1.083       .  S
C2153      C2154   1.405       .  A
C2154      H2158   1.083       .  S
C2155      C2160   1.406       .  A
C2155      C2164   1.409       .  A
C2160      C2161   1.405       .  A
C2160      H2165   1.083       .  S
C2161      C2162   1.408       .  A
C2161      H2166   1.082       .  S
C2162      C2163   1.404       .  A
C2163      C2164   1.402       .  A
C2163      H2167   1.083       .  S
C2164      H2168   1.082       .  S
C2169      C2170   1.410       .  A
C2169      C2174   1.401       .  A
C2169      H2179   1.082       .  S
C2170      C2171   1.406       .  A
C2170      C2175   1.491       .  S
C2171      C2172   1.401       .  A
C2171      H2176   1.083       .  S
C2172      C2173   1.404       .  A
C2172      H2177   1.083       .  S
C2173      C2174   1.399       .  A
C2174      H2178   1.082       .  S
C2175      C2180   1.404       .  A
C2175      C2184   1.410       .  A
C2180      C2181   1.394       .  A
C2180      H2185   1.083       .  S
C2181      C2182   1.404       .  A
C2181      H2186   1.082       .  S
C2182      C2183   1.404       .  A
C2183      C2184   1.407       .  A
C2183      H2187   1.083       .  S
C2184      H2188   1.082       .  S
C2189      C2190   1.405       .  A
C2189      C2194   1.396       .  A
C2189      H2199   1.083       .  S
C2190      C2191   1.408       .  A
C2190      C2195   1.489       .  S
C2191      C2192   1.404       .  A
C2191      H2196   1.083       .  S
C2192      C2193   1.404       .  A
C2192      H2197   1.083       .  S
C2193      C2194   1.405       .  A
C2194      H2198   1.084       .  S
C2195      C2200   1.407       .  A
C2195      C2204   1.406       .  A
C2200      C2201   1.402       .  A
C2200      H2205   1.084       .  S
C2201      C2202   1.404       .  A
C2201      H2206   1.082       .  S
C2202      C2203   1.405       .  A
C2203      C2204   1.398       .  A
C2203      H2207   1.084       .  S
C2204      H2208   1.082       .  S
C2209      C2210   1.406       .  A
C2209      C2214   1.400       .  A
C2209      H2219   1.083       .  S
C2210      C2211   1.410       .  A
C2210      C2215   1.493       .  S
C2211      C2212   1.407       .  A
C2211      H2216   1.083       .  S
C2212      C2213   1.404       .  A
C2212      H2217   1.082       .  S
C2213      C2214   1.403       .  A
C2214      H2218   1.083       .  S
C2215      C2220   1.409       .  A
C2215      C2224   1.406       .  A
C2220      C2221   1.404       .  A
C2220      H2225   1.083       .  S
C2221      C2222   1.403       .  A
C2221      H2226   1.081       .  S
C2222      C2223   1.406       .  A
C2223      C2224   1.402       .  A
C2223      H2227   1.082       .  S
C2224      H2228   1.083       .  S
C2229      C2230   1.407       .  A
C2229      C2234   1.401       .  A
C2229      H2239   1.083       .  S
C2230      C2231   1.411       .  A
C2230      C2235   1.501       .  S
C2231      C2232   1.406       .  A
C2231      H2236   1.082       .  S
C2232      C2233   1.404       .  A
C2232      H2237   1.081       .  S
C2233      C2234   1.408       .  A
C2234      H2238   1.083       .  S
C2235      C2240   1.412       .  A
C2235      C2244   1.407       .  A
C2240      C2241   1.408       .  A
C2240      H2245   1.082       .  S
C2241      C2242   1.405       .  A
C2241      H2246   1.082       .  S
C2242      C2243   1.404       .  A
C2243      C2244   1.400       .  A
C2243      H2247   1.083       .  S
C2244      H2248   1.082       .  S
C2249      C2250   1.405       .  A
C2249      C2254   1.397       .  A
C2249      H2259   1.083       .  S
C2250      C2251   1.405       .  A
C2250      C2255   1.482       .  S
C2251      C2252   1.397       .  A
C2251      H2256   1.083       .  S
C2252      C2253   1.404       .  A
C2252      H2257   1.083       .  S
C2253      C2254   1.403       .  A
C2254      H2258   1.083       .  S
C2255      C2260   1.406       .  A
C2255      C2264   1.404       .  A
C2260      C2261   1.398   1_655  A
C2260      H2265   1.083       .  S
C2261      C2262   1.404       .  A
C2261      H2266   1.083       .  S
C2262      C2263   1.406       .  A
C2263      C2264   1.398   1_455  A
C2263      H2267   1.083       .  S
C2264      H2268   1.083       .  S
C2269      C2270   1.409       .  A
C2269      C2274   1.404       .  A
C2269      H2279   1.083       .  S
C2270      C2271   1.409       .  A
C2270      C2275   1.501       .  S
C2271      C2272   1.405       .  A
C2271      H2276   1.082       .  S
C2272      C2273   1.406       .  A
C2272      H2277   1.083       .  S
C2273      C2274   1.406       .  A
C2274      H2278   1.083       .  S
C2275      C2280   1.408       .  A
C2275      C2284   1.410       .  A
C2280      C2281   1.403       .  A
C2280      H2285   1.083       .  S
C2281      C2282   1.405       .  A
C2281      H2286   1.083       .  S
C2282      C2283   1.404       .  A
C2283      C2284   1.405       .  A
C2283      H2287   1.084       .  S
C2284      H2288   1.082       .  S
C2289      C2290   1.408       .  A
C2289      C2294   1.403       .  A
C2289      H2299   1.083       .  S
C2290      C2291   1.407       .  A
C2290      C2295   1.491       .  S
C2291      C2292   1.397       .  A
C2291      H2296   1.082       .  S
C2292      C2293   1.403       .  A
C2292      H2297   1.084       .  S
C2293      C2294   1.406       .  A
C2294      H2298   1.083       .  S
C2295      C2300   1.409       .  A
C2295      C2304   1.406       .  A
C2300      C2301   1.403       .  A
C2300      H2305   1.082       .  S
C2301      C2302   1.404       .  A
C2301      H2306   1.083       .  S
C2302      C2303   1.406       .  A
C2303      C2304   1.398       .  A
C2303      H2307   1.083       .  S
C2304      H2308   1.083       .  S
C2309      C2310   1.408       .  A
C2309      C2314   1.409       .  A
C2309      H2319   1.084       .  S
C2310      C2311   1.407       .  A
C2310      C2315   1.496       .  S
C2311      C2312   1.400       .  A
C2311      H2316   1.083       .  S
C2312      C2313   1.404       .  A
C2312      H2317   1.083       .  S
C2313      C2314   1.410       .  A
C2314      H2318   1.082       .  S
C2315      C2320   1.407       .  A
C2315      C2324   1.408       .  A
C2320      C2321   1.406       .  A
C2320      H2325   1.084       .  S
C2321      C2322   1.406       .  A
C2321      H2326   1.082       .  S
C2322      C2323   1.403       .  A
C2323      C2324   1.400       .  A
C2323      H2327   1.085       .  S
C2324      H2328   1.082       .  S
C2329      C2330   1.408       .  A
C2329      C2334   1.405       .  A
C2329      H2339   1.083       .  S
C2330      C2331   1.407       .  A
C2330      C2335   1.494       .  S
C2331      C2332   1.402       .  A
C2331      H2336   1.083       .  S
C2332      C2333   1.407   1_655  A
C2332      H2337   1.083       .  S
C2333      C2334   1.406   1_455  A
C2334      H2338   1.083   1_655  S
C2335      C2340   1.408       .  A
C2335      C2344   1.407       .  A
C2340      C2341   1.403       .  A
C2340      H2345   1.083       .  S
C2341      C2342   1.406       .  A
C2341      H2346   1.083       .  S
C2342      C2343   1.406       .  A
C2343      C2344   1.401       .  A
C2343      H2347   1.083       .  S
C2344      H2348   1.083       .  S
C2349      C2350   1.408       .  A
C2349      C2354   1.397       .  A
C2349      H2359   1.082       .  S
C2350      C2351   1.408       .  A
C2350      C2355   1.494       .  S
C2351      C2352   1.404       .  A
C2351      H2356   1.083       .  S
C2352      C2353   1.407       .  A
C2352      H2357   1.083       .  S
C2353      C2354   1.402       .  A
C2354      H2358   1.084       .  S
C2355      C2360   1.405       .  A
C2355      C2364   1.410       .  A
C2360      C2361   1.393       .  A
C2360      H2365   1.083       .  S
C2361      C2362   1.403       .  A
C2361      H2366   1.082       .  S
C2362      C2363   1.406       .  A
C2363      C2364   1.407       .  A
C2363      H2367   1.083       .  S
C2364      H2368   1.083       .  S
C2369      C2370   1.410       .  A
C2369      C2374   1.405       .  A
C2369      H2379   1.082       .  S
C2370      C2371   1.406       .  A
C2370      C2375   1.499       .  S
C2371      C2372   1.405       .  A
C2371      H2376   1.083       .  S
C2372      C2373   1.408       .  A
C2372      H2377   1.082       .  S
C2373      C2374   1.406       .  A
C2374      H2378   1.083       .  S
C2375      C2380   1.408       .  A
C2375      C2384   1.408       .  A
C2380      C2381   1.404       .  A
C2380      H2385   1.083       .  S
C2381      C2382   1.403       .  A
C2381      H2386   1.082       .  S
C2382      C2383   1.406       .  A
C2383      C2384   1.405       .  A
C2383      H2387   1.084       .  S
C2384      H2388   1.083       .  S
C2389      C2390   1.408       .  A
C2389      C2394   1.404       .  A
C2389      H2399   1.083       .  S
C2390      C2391   1.408       .  A
C2390      C2395   1.495       .  S
C2391      C2392   1.398       .  A
C2391      H2396   1.082       .  S
C2392      C2393   1.403       .  A
C2392      H2397   1.083       .  S
C2393      C2394   1.407       .  A
C2394      H2398   1.083       .  S
C2395      C2400   1.408       .  A
C2395      C2404   1.408       .  A
C2400      C2401   1.399       .  A
C2400      H2405   1.083       .  S
C2401      C2402   1.405       .  A
C2401      H2406   1.083       .  S
C2402      C2403   1.405       .  A
C2403      C2404   1.403       .  A
C2403      H2407   1.084       .  S
C2404      H2408   1.082       .  S
C2409      C2410   1.407       .  A
C2409      C2414   1.399       .  A
C2409      H2419   1.083       .  S
C2410      C2411   1.408       .  A
C2410      C2415   1.494       .  S
C2411      C2412   1.403       .  A
C2411      H2416   1.082       .  S
C2412      C2413   1.404       .  A
C2412      H2417   1.084       .  S
C2413      C2414   1.402       .  A
C2414      H2418   1.083       .  S
C2415      C2420   1.408       .  A
C2415      C2424   1.407       .  A
C2420      C2421   1.399       .  A
C2420      H2425   1.082       .  S
C2421      C2422   1.403       .  A
C2421      H2426   1.083       .  S
C2422      C2423   1.407       .  A
C2423      C2424   1.404       .  A
C2423      H2427   1.082       .  S
C2424      H2428   1.083       .  S
C2429      C2430   1.406       .  A
C2429      C2434   1.403   1_655  A
C2429      H2439   1.083       .  S
C2430      C2431   1.407       .  A
C2430      C2435   1.490       .  S
C2431      C2432   1.400       .  A
C2431      H2436   1.083       .  S
C2432      C2433   1.406   1_655  A
C2432      H2437   1.083   1_655  S
C2433      C2434   1.406       .  A
C2434      H2438   1.082       .  S
C2435      C2440   1.408       .  A
C2435      C2444   1.404       .  A
C2440      C2441   1.405       .  A
C2440      H2445   1.083       .  S
C2441      C2442   1.407       .  A
C2441      H2446   1.083       .  S
C2442      C2443   1.405       .  A
C2443      C2444   1.398       .  A
C2443      H2447   1.083       .  S
C2444      H2448   1.083       .  S
C2449      C2450   1.406       .  A
C2449      C2454   1.402       .  A
C2449      H2459   1.083       .  S
C2450      C2451   1.408       .  A
C2450      C2455   1.491       .  S
C2451      C2452   1.398       .  A
C2451      H2456   1.082       .  S
C2452      C2453   1.403       .  A
C2452      H2457   1.084       .  S
C2453      C2454   1.406       .  A
C2454      H2458   1.082       .  S
C2455      C2460   1.410       .  A
C2455      C2464   1.404       .  A
C2460      C2461   1.405       .  A
C2460      H2465   1.082       .  S
C2461      C2462   1.406       .  A
C2461      H2466   1.084       .  S
C2462      C2463   1.404       .  A
C2463      C2464   1.394       .  A
C2463      H2467   1.083       .  S
C2464      H2468   1.083       .  S
C2469      C2470   1.403   1_455  A
C2469      C2474   1.393       .  A
C2469      H2479   1.083   1_455  S
C2470      C2471   1.403   1_655  A
C2470      C2475   1.473       .  S
C2471      C2472   1.398       .  A
C2471      H2476   1.083       .  S
C2472      C2473   1.406       .  A
C2472      H2477   1.083       .  S
C2473      C2474   1.402       .  A
C2474      H2478   1.083       .  S
C2475      C2480   1.404       .  A
C2475      C2484   1.402       .  A
C2480      C2481   1.395       .  A
C2480      H2485   1.083       .  S
C2481      C2482   1.404       .  A
C2481      H2486   1.084       .  S
C2482      C2483   1.405       .  A
C2483      C2484   1.396       .  A
C2483      H2487   1.083       .  S
C2484      H2488   1.084       .  S
C2489      C2490   1.407       .  A
C2489      C2494   1.408       .  A
C2489      H2499   1.083       .  S
C2490      C2491   1.409       .  A
C2490      C2495   1.500       .  S
C2491      C2492   1.403       .  A
C2491      H2496   1.082       .  S
C2492      C2493   1.404       .  A
C2492      H2497   1.083       .  S
C2493      C2494   1.410       .  A
C2494      H2498   1.082       .  S
C2495      C2500   1.409       .  A
C2495      C2504   1.407       .  A
C2500      C2501   1.409       .  A
C2500      H2505   1.084       .  S
C2501      C2502   1.406       .  A
C2501      H2506   1.082       .  S
C2502      C2503   1.404       .  A
C2503      C2504   1.402       .  A
C2503      H2507   1.085       .  S
C2504      H2508   1.082       .  S
C2509      C2510   1.405       .  A
C2509      C2514   1.400       .  A
C2509      H2519   1.083       .  S
C2510      C2511   1.406       .  A
C2510      C2515   1.487   1_545  S
C2511      C2512   1.400       .  A
C2511      H2516   1.083       .  S
C2512      C2513   1.404       .  A
C2512      H2517   1.083       .  S
C2513      C2514   1.406       .  A
C2514      H2518   1.083       .  S
C2515      C2520   1.406       .  A
C2515      C2524   1.405       .  A
C2520      C2521   1.402       .  A
C2520      H2525   1.083       .  S
C2521      C2522   1.405       .  A
C2521      H2526   1.083       .  S
C2522      C2523   1.406       .  A
C2523      C2524   1.398       .  A
C2523      H2527   1.083       .  S
C2524      H2528   1.084       .  S
C2529      C2530   1.407       .  A
C2529      C2534   1.399       .  A
C2529      H2539   1.083       .  S
C2530      C2531   1.409       .  A
C2530      C2535   1.492       .  S
C2531      C2532   1.401       .  A
C2531      H2536   1.082       .  S
C2532      C2533   1.405       .  A
C2532      H2537   1.083       .  S
C2533      C2534   1.405       .  A
C2534      H2538   1.083       .  S
C2535      C2540   1.408       .  A
C2535      C2544   1.407       .  A
C2540      C2541   1.399       .  A
C2540      H2545   1.082       .  S
C2541      C2542   1.403       .  A
C2541      H2546   1.084       .  S
C2542      C2543   1.406       .  A
C2543      C2544   1.400       .  A
C2543      H2547   1.083       .  S
C2544      H2548   1.083       .  S
C2549      C2550   1.406       .  A
C2549      C2554   1.406       .  A
C2549      H2559   1.084       .  S
C2550      C2551   1.408       .  A
C2550      C2555   1.496       .  S
C2551      C2552   1.401       .  A
C2551      H2556   1.082       .  S
C2552      C2553   1.404       .  A
C2552      H2557   1.083       .  S
C2553      C2554   1.409       .  A
C2554      H2558   1.082       .  S
C2555      C2560   1.410       .  A
C2555      C2564   1.405       .  A
C2560      C2561   1.408       .  A
C2560      H2565   1.082       .  S
C2561      C2562   1.405       .  A
C2561      H2566   1.084       .  S
C2562      C2563   1.404       .  A
C2563      C2564   1.399       .  A
C2563      H2567   1.083       .  S
C2564      H2568   1.084       .  S
C2569      C2570   1.409       .  A
C2569      C2574   1.398   1_655  A
C2569      H2579   1.082       .  S
C2570      C2571   1.411       .  A
C2570      C2575   1.502       .  S
C2571      C2572   1.406   1_655  A
C2571      H2576   1.082       .  S
C2572      C2573   1.406       .  A
C2572      H2577   1.083       .  S
C2573      C2574   1.404       .  A
C2574      H2578   1.083       .  S
C2575      C2580   1.409       .  A
C2575      C2584   1.411       .  A
C2580      C2581   1.400       .  A
C2580      H2585   1.083       .  S
C2581      C2582   1.406       .  A
C2581      H2586   1.083       .  S
C2582      C2583   1.405       .  A
C2583      C2584   1.406       .  A
C2583      H2587   1.083       .  S
C2584      H2588   1.082       .  S
C2589      C2590   1.406       .  A
C2589      C2594   1.402       .  A
C2589      H2599   1.084       .  S
C2590      C2591   1.406       .  A
C2590      C2595   1.488   1_545  S
C2591      C2592   1.399       .  A
C2591      H2596   1.083       .  S
C2592      C2593   1.404       .  A
C2592      H2597   1.083       .  S
C2593      C2594   1.407       .  A
C2594      H2598   1.083       .  S
C2595      C2600   1.407       .  A
C2595      C2604   1.405       .  A
C2600      C2601   1.403       .  A
C2600      H2605   1.083       .  S
C2601      C2602   1.406       .  A
C2601      H2606   1.083       .  S
C2602      C2603   1.404       .  A
C2603      C2604   1.397       .  A
C2603      H2607   1.083       .  S
C2604      H2608   1.083       .  S
C2609      C2610   1.407       .  A
C2609      C2614   1.401       .  A
C2609      H2619   1.082       .  S
C2610      C2611   1.409       .  A
C2610      C2615   1.494       .  S
C2611      C2612   1.399       .  A
C2611      H2616   1.082       .  S
C2612      C2613   1.403       .  A
C2612      H2617   1.084       .  S
C2613      C2614   1.406       .  A
C2614      H2618   1.083       .  S
C2615      C2620   1.410       .  A
C2615      C2624   1.406       .  A
C2620      C2621   1.404       .  A
C2620      H2625   1.082       .  S
C2621      C2622   1.404       .  A
C2621      H2626   1.082       .  S
C2622      C2623   1.406       .  A
C2623      C2624   1.396       .  A
C2623      H2627   1.083       .  S
C2624      H2628   1.083       .  S
C2629      C2630   1.407       .  A
C2629      C2634   1.397       .  A
C2629      H2639   1.082       .  S
C2630      C2631   1.408       .  A
C2630      C2635   1.492   1_565  S
C2631      C2632   1.402       .  A
C2631      H2636   1.082       .  S
C2632      C2633   1.405       .  A
C2632      H2637   1.082       .  S
C2633      C2634   1.403       .  A
C2634      H2638   1.082       .  S
C2635      C2640   1.408       .  A
C2635      C2644   1.408       .  A
C2640      C2641   1.397       .  A
C2640      H2645   1.082       .  S
C2641      C2642   1.402       .  A
C2641      H2646   1.083       .  S
C2642      C2643   1.404       .  A
C2643      C2644   1.399       .  A
C2643      H2647   1.083       .  S
C2644      H2648   1.082       .  S
C2649      C2650   1.406       .  A
C2649      C2654   1.401       .  A
C2649      H2659   1.083       .  S
C2650      C2651   1.407       .  A
C2650      C2655   1.487       .  S
C2651      C2652   1.395       .  A
C2651      H2656   1.082       .  S
C2652      C2653   1.401       .  A
C2652      H2657   1.084       .  S
C2653      C2654   1.406       .  A
C2654      H2658   1.083       .  S
C2655      C2660   1.409       .  A
C2655      C2664   1.404       .  A
C2660      C2661   1.404       .  A
C2660      H2665   1.082       .  S
C2661      C2662   1.405       .  A
C2661      H2666   1.083       .  S
C2662      C2663   1.404       .  A
C2663      C2664   1.392       .  A
C2663      H2667   1.082       .  S
C2664      H2668   1.083       .  S
C2669      C2670   1.410       .  A
C2669      C2674   1.408   1_655  A
C2669      H2679   1.082       .  S
C2670      C2671   1.407       .  A
C2670      C2675   1.497       .  S
C2671      C2672   1.397   1_655  A
C2671      H2676   1.083       .  S
C2672      C2673   1.405       .  A
C2672      H2677   1.083       .  S
C2673      C2674   1.407       .  A
C2674      H2678   1.083       .  S
C2675      C2680   1.410       .  A
C2675      C2684   1.407       .  A
C2680      C2681   1.407       .  A
C2680      H2685   1.082       .  S
C2681      C2682   1.406       .  A
C2681      H2686   1.083       .  S
C2682      C2683   1.404       .  A
C2683      C2684   1.395       .  A
C2683      H2687   1.083       .  S
C2684      H2688   1.083       .  S
C2689      C2690   1.407       .  A
C2689      C2694   1.399       .  A
C2689      H2699   1.083       .  S
C2690      C2691   1.408       .  A
C2690      C2695   1.491   1_565  S
C2691      C2692   1.402       .  A
C2691      H2696   1.083       .  S
C2692      C2693   1.405       .  A
C2692      H2697   1.083       .  S
C2693      C2694   1.404       .  A
C2694      H2698   1.083       .  S
C2695      C2700   1.406       .  A
C2695      C2704   1.408       .  A
C2700      C2701   1.398       .  A
C2700      H2705   1.083       .  S
C2701      C2702   1.406       .  A
C2701      H2706   1.083       .  S
C2702      C2703   1.405       .  A
C2703      C2704   1.403       .  A
C2703      H2707   1.083       .  S
C2704      H2708   1.083       .  S
C2709      C2710   1.409       .  A
C2709      C2714   1.405       .  A
C2709      H2719   1.082       .  S
C2710      C2711   1.405       .  A
C2710      C2715   1.491       .  S
C2711      C2712   1.395       .  A
C2711      H2716   1.083       .  S
C2712      C2713   1.404       .  A
C2712      H2717   1.083       .  S
C2713      C2714   1.405       .  A
C2714      H2718   1.084       .  S
C2715      C2720   1.407       .  A
C2715      C2724   1.407       .  A
C2720      C2721   1.404       .  A
C2720      H2725   1.083       .  S
C2721      C2722   1.407       .  A
C2721      H2726   1.083       .  S
C2722      C2723   1.403       .  A
C2723      C2724   1.397       .  A
C2723      H2727   1.084       .  S
C2724      H2728   1.082       .  S
C2729      C2730   1.409       .  A
C2729      C2734   1.398       .  A
C2729      H2739   1.083       .  S
C2730      C2731   1.407       .  A
C2730      C2735   1.492       .  S
C2731      C2732   1.399       .  A
C2731      H2736   1.082       .  S
C2732      C2733   1.405       .  A
C2732      H2737   1.084       .  S
C2733      C2734   1.403       .  A
C2734      H2738   1.082       .  S
C2735      C2740   1.407       .  A
C2735      C2744   1.409       .  A
C2740      C2741   1.396       .  A
C2740      H2745   1.081       .  S
C2741      C2742   1.403       .  A
C2741      H2746   1.084       .  S
C2742      C2743   1.404       .  A
C2743      C2744   1.401       .  A
C2743      H2747   1.082       .  S
C2744      H2748   1.083       .  S
C2749      C2750   1.407       .  A
C2749      C2754   1.400       .  A
C2749      H2759   1.082       .  S
C2750      C2751   1.408       .  A
C2750      C2755   1.491       .  S
C2751      C2752   1.400       .  A
C2751      H2756   1.083       .  S
C2752      C2753   1.404       .  A
C2752      H2757   1.082       .  S
C2753      C2754   1.405       .  A
C2754      H2758   1.084       .  S
C2755      C2760   1.408       .  A
C2755      C2764   1.406       .  A
C2760      C2761   1.403       .  A
C2760      H2765   1.084       .  S
C2761      C2762   1.406       .  A
C2761      H2766   1.082       .  S
C2762      C2763   1.405       .  A
C2763      C2764   1.398       .  A
C2763      H2767   1.084       .  S
C2764      H2768   1.082       .  S
C2769      C2770   1.406       .  A
C2769      C2774   1.397       .  A
C2769      H2779   1.083       .  S
C2770      C2771   1.406       .  A
C2770      C2775   1.484       .  S
C2771      C2772   1.397       .  A
C2771      H2776   1.083       .  S
C2772      C2773   1.403       .  A
C2772      H2777   1.082       .  S
C2773      C2774   1.405       .  A
C2774      H2778   1.083       .  S
C2775      C2780   1.406       .  A
C2775      C2784   1.406       .  A
C2780      C2781   1.397       .  A
C2780      H2785   1.083       .  S
C2781      C2782   1.403       .  A
C2781      H2786   1.084       .  S
C2782      C2783   1.402       .  A
C2783      C2784   1.396       .  A
C2783      H2787   1.084       .  S
C2784      H2788   1.083       .  S
C2789      C2790   1.407       .  A
C2789      C2794   1.404       .  A
C2789      H2799   1.083       .  S
C2790      C2791   1.410       .  A
C2790      C2795   1.499       .  S
C2791      C2792   1.404       .  A
C2791      H2796   1.082       .  S
C2792      C2793   1.405       .  A
C2792      H2797   1.083       .  S
C2793      C2794   1.408       .  A
C2794      H2798   1.082       .  S
C2795      C2800   1.409       .  A
C2795      C2804   1.408       .  A
C2800      C2801   1.404       .  A
C2800      H2805   1.082       .  S
C2801      C2802   1.403       .  A
C2801      H2806   1.084       .  S
C2802      C2803   1.405       .  A
C2803      C2804   1.403       .  A
C2803      H2807   1.083       .  S
C2804      H2808   1.083       .  S
C2809      C2810   1.405       .  A
C2809      C2814   1.401       .  A
C2809      H2819   1.083       .  S
C2810      C2811   1.407       .  A
C2810      C2815   1.487       .  S
C2811      C2812   1.400       .  A
C2811      H2816   1.083       .  S
C2812      C2813   1.404       .  A
C2812      H2817   1.083       .  S
C2813      C2814   1.407       .  A
C2814      H2818   1.083       .  S
C2815      C2820   1.405       .  A
C2815      C2824   1.408       .  A
C2820      C2821   1.397       .  A
C2820      H2825   1.083       .  S
C2821      C2822   1.404       .  A
C2821      H2826   1.083       .  S
C2822      C2823   1.405       .  A
C2823      C2824   1.403       .  A
C2823      H2827   1.083       .  S
C2824      H2828   1.083       .  S
C2829      C2830   1.411       .  A
C2829      C2834   1.402       .  A
C2829      H2839   1.082       .  S
C2830      C2831   1.409       .  A
C2830      C2835   1.503       .  S
C2831      C2832   1.405       .  A
C2831      H2836   1.082       .  S
C2832      C2833   1.407       .  A
C2832      H2837   1.082       .  S
C2833      C2834   1.404       .  A
C2834      H2838   1.083       .  S
C2835      C2840   1.409       .  A
C2835      C2844   1.411       .  A
C2840      C2841   1.401       .  A
C2840      H2845   1.083       .  S
C2841      C2842   1.403       .  A
C2841      H2846   1.083       .  S
C2842      C2843   1.404       .  A
C2843      C2844   1.406       .  A
C2843      H2847   1.084       .  S
C2844      H2848   1.081       .  S
C2849      C2850   1.408       .  A
C2849      C2854   1.398       .  A
C2849      H2859   1.082       .  S
C2850      C2851   1.410       .  A
C2850      C2855   1.500       .  S
C2851      C2852   1.408       .  A
C2851      H2856   1.082       .  S
C2852      C2853   1.407       .  A
C2852      H2857   1.083       .  S
C2853      C2854   1.405       .  A
C2854      H2858   1.083       .  S
C2855      C2860   1.408       .  A
C2855      C2864   1.410       .  A
C2860      C2861   1.397       .  A
C2860      H2865   1.083       .  S
C2861      C2862   1.404       .  A
C2861      H2866   1.083       .  S
C2862      C2863   1.407       .  A
C2863      C2864   1.408       .  A
C2863      H2867   1.083       .  S
C2864      H2868   1.082       .  S
C2869      C2870   1.407       .  A
C2869      C2874   1.404       .  A
C2869      H2879   1.083       .  S
C2870      C2871   1.406       .  A
C2870      C2875   1.490       .  S
C2871      C2872   1.401       .  A
C2871      H2876   1.082       .  S
C2872      C2873   1.405       .  A
C2872      H2877   1.083       .  S
C2873      C2874   1.407       .  A
C2874      H2878   1.083       .  S
C2875      C2880   1.406       .  A
C2875      C2884   1.407       .  A
C2880      C2881   1.401       .  A
C2880      H2885   1.083       .  S
C2881      C2882   1.406       .  A
C2881      H2886   1.083       .  S
C2882      C2883   1.406       .  A
C2883      C2884   1.402       .  A
C2883      H2887   1.083       .  S
C2884      H2888   1.083       .  S
C2889      C2890   1.406       .  A
C2889      C2894   1.401       .  A
C2889      H2899   1.083       .  S
C2890      C2891   1.409       .  A
C2890      C2895   1.490       .  S
C2891      C2892   1.398       .  A
C2891      H2896   1.082       .  S
C2892      C2893   1.403       .  A
C2892      H2897   1.084       .  S
C2893      C2894   1.406       .  A
C2894      H2898   1.082       .  S
C2895      C2900   1.410       .  A
C2895      C2904   1.405       .  A
C2900      C2901   1.404       .  A
C2900      H2905   1.082       .  S
C2901      C2902   1.405       .  A
C2901      H2906   1.084       .  S
C2902      C2903   1.403       .  A
C2903      C2904   1.395       .  A
C2903      H2907   1.083       .  S
C2904      H2908   1.083       .  S
C2909      C2910   1.406       .  A
C2909      C2914   1.405       .  A
C2909      H2919   1.083       .  S
C2910      C2911   1.403       .  A
C2910      C2915   1.486       .  S
C2911      C2912   1.401       .  A
C2911      H2916   1.083       .  S
C2912      C2913   1.407       .  A
C2912      H2917   1.083       .  S
C2913      C2914   1.407       .  A
C2914      H2918   1.082       .  S
C2915      C2920   1.404       .  A
C2915      C2924   1.405       .  A
C2920      C2921   1.401       .  A
C2920      H2925   1.083       .  S
C2921      C2922   1.407       .  A
C2921      H2926   1.083       .  S
C2922      C2923   1.406       .  A
C2923      C2924   1.403       .  A
C2923      H2927   1.083       .  S
C2924      H2928   1.083       .  S
C2929      C2930   1.406       .  A
C2929      C2934   1.396       .  A
C2929      H2939   1.083       .  S
C2930      C2931   1.407       .  A
C2930      C2935   1.489       .  S
C2931      C2932   1.402       .  A
C2931      H2936   1.084       .  S
C2932      C2933   1.406       .  A
C2932      H2937   1.083       .  S
C2933      C2934   1.403       .  A
C2934      H2938   1.083       .  S
C2935      C2940   1.407       .  A
C2935      C2944   1.406       .  A
C2940      C2941   1.401       .  A
C2940      H2945   1.082       .  S
C2941      C2942   1.406       .  A
C2941      H2946   1.083       .  S
C2942      C2943   1.404       .  A
C2943      C2944   1.399       .  A
C2943      H2947   1.082       .  S
C2944      H2948   1.083       .  S
C2949      C2950   1.407       .  A
C2949      C2954   1.400       .  A
C2949      H2959   1.084       .  S
C2950      C2951   1.405       .  A
C2950      C2955   1.485       .  S
C2951      C2952   1.394       .  A
C2951      H2956   1.082       .  S
C2952      C2953   1.404       .  A
C2952      H2957   1.084       .  S
C2953      C2954   1.404       .  A
C2954      H2958   1.083       .  S
C2955      C2960   1.406       .  A
C2955      C2964   1.406       .  A
C2960      C2961   1.398       .  A
C2960      H2965   1.082       .  S
C2961      C2962   1.404       .  A
C2961      H2966   1.084       .  S
C2962      C2963   1.403       .  A
C2963      C2964   1.396       .  A
C2963      H2967   1.082       .  S
C2964      H2968   1.084       .  S
C2969      C2970   1.408       .  A
C2969      C2974   1.398       .  A
C2969      H2979   1.082       .  S
C2970      C2971   1.408       .  A
C2970      C2975   1.494       .  S
C2971      C2972   1.402       .  A
C2971      H2976   1.083       .  S
C2972      C2973   1.405       .  A
C2972      H2977   1.082       .  S
C2973      C2974   1.404       .  A
C2974      H2978   1.084       .  S
C2975      C2980   1.407       .  A
C2975      C2984   1.409       .  A
C2980      C2981   1.398       .  A
C2980      H2985   1.083       .  S
C2981      C2982   1.403       .  A
C2981      H2986   1.082       .  S
C2982      C2983   1.405       .  A
C2983      C2984   1.403       .  A
C2983      H2987   1.083       .  S
C2984      H2988   1.082       .  S
C2989      C2990   1.405       .  A
C2989      C2994   1.397       .  A
C2989      H2999   1.083       .  S
C2990      C2991   1.405       .  A
C2990      C2995   1.483       .  S
C2991      C2992   1.400       .  A
C2991      H2996   1.083       .  S
C2992      C2993   1.406       .  A
C2992      H2997   1.083       .  S
C2993      C2994   1.404       .  A
C2994      H2998   1.084       .  S
C2995      C3000   1.405       .  A
C2995      C3004   1.405       .  A
C3000      C3001   1.398       .  A
C3000      H3005   1.083       .  S
C3001      C3002   1.405       .  A
C3001      H3006   1.083       .  S
C3002      C3003   1.405       .  A
C3003      C3004   1.400       .  A
C3003      H3007   1.082       .  S
C3004      H3008   1.084       .  S
C3009      C3010   1.406       .  A
C3009      C3014   1.399       .  A
C3009      H3019   1.084       .  S
C3010      C3011   1.412       .  A
C3010      C3015   1.500       .  S
C3011      C3012   1.409       .  A
C3011      H3016   1.082       .  S
C3012      C3013   1.405       .  A
C3012      H3017   1.084       .  S
C3013      C3014   1.406       .  A
C3014      H3018   1.083       .  S
C3015      C3020   1.410       .  A
C3015      C3024   1.408       .  A
C3020      C3021   1.401       .  A
C3020      H3025   1.082       .  S
C3021      C3022   1.404       .  A
C3021      H3026   1.083       .  S
C3022      C3023   1.408       .  A
C3023      C3024   1.407       .  A
C3023      H3027   1.083       .  S
C3024      H3028   1.083       .  S
C3029      C3030   1.409       .  A
C3029      C3034   1.402       .  A
C3029      H3039   1.082       .  S
C3030      C3031   1.408       .  A
C3030      C3035   1.495       .  S
C3031      C3032   1.399       .  A
C3031      H3036   1.083       .  S
C3032      C3033   1.405       .  A
C3032      H3037   1.083       .  S
C3033      C3034   1.405       .  A
C3034      H3038   1.083       .  S
C3035      C3040   1.409       .  A
C3035      C3044   1.408       .  A
C3040      C3041   1.401       .  A
C3040      H3045   1.082       .  S
C3041      C3042   1.404       .  A
C3041      H3046   1.083       .  S
C3042      C3043   1.406       .  A
C3043      C3044   1.400       .  A
C3043      H3047   1.083       .  S
C3044      H3048   1.083       .  S
C3049      C3050   1.406       .  A
C3049      C3054   1.403       .  A
C3049      H3059   1.084       .  S
C3050      C3051   1.408       .  A
C3050      C3055   1.493       .  S
C3051      C3052   1.399       .  A
C3051      H3056   1.083       .  S
C3052      C3053   1.403       .  A
C3052      H3057   1.084       .  S
C3053      C3054   1.407       .  A
C3054      H3058   1.083       .  S
C3055      C3060   1.409       .  A
C3055      C3064   1.405       .  A
C3060      C3061   1.406       .  A
C3060      H3065   1.082       .  S
C3061      C3062   1.406       .  A
C3061      H3066   1.083       .  S
C3062      C3063   1.405       .  A
C3063      C3064   1.397       .  A
C3063      H3067   1.082       .  S
C3064      H3068   1.083       .  S
C3069      C3070   1.410       .  A
C3069      C3074   1.403       .  A
C3069      H3079   1.082       .  S
C3070      C3071   1.407       .  A
C3070      C3075   1.497       .  S
C3071      C3072   1.401       .  A
C3071      H3076   1.083       .  S
C3072      C3073   1.406       .  A
C3072      H3077   1.083       .  S
C3073      C3074   1.404       .  A
C3074      H3078   1.083       .  S
C3075      C3080   1.410       .  A
C3075      C3084   1.408       .  A
C3080      C3081   1.404       .  A
C3080      H3085   1.083       .  S
C3081      C3082   1.403       .  A
C3081      H3086   1.082       .  S
C3082      C3083   1.402       .  A
C3083      C3084   1.399       .  A
C3083      H3087   1.084       .  S
C3084      H3088   1.082       .  S
C3089      C3090   1.409       .  A
C3089      C3094   1.401       .  A
C3089      H3099   1.083       .  S
C3090      C3091   1.408       .  A
C3090      C3095   1.497       .  S
C3091      C3092   1.404       .  A
C3091      H3096   1.083       .  S
C3092      C3093   1.407       .  A
C3092      H3097   1.084       .  S
C3093      C3094   1.405       .  A
C3094      H3098   1.083       .  S
C3095      C3100   1.406       .  A
C3095      C3104   1.410       .  A
C3100      C3101   1.399       .  A
C3100      H3105   1.083       .  S
C3101      C3102   1.405       .  A
C3101      H3106   1.083       .  S
C3102      C3103   1.408       .  A
C3103      C3104   1.408       .  A
C3103      H3107   1.083       .  S
C3104      H3108   1.083       .  S
C3109      C3110   1.403       .  A
C3109      C3114   1.393       .  A
C3109      H3119   1.083       .  S
C3110      C3111   1.406       .  A
C3110      C3115   1.482       .  S
C3111      C3112   1.404       .  A
C3111      H3116   1.083       .  S
C3112      C3113   1.406       .  A
C3112      H3117   1.083       .  S
C3113      C3114   1.404       .  A
C3114      H3118   1.083       .  S
C3115      C3120   1.404       .  A
C3115      C3124   1.405       .  A
C3120      C3121   1.396       .  A
C3120      H3125   1.083       .  S
C3121      C3122   1.405       .  A
C3121      H3126   1.083       .  S
C3122      C3123   1.407       .  A
C3123      C3124   1.404       .  A
C3123      H3127   1.083       .  S
C3124      H3128   1.084       .  S
C3129      C3130   1.408       .  A
C3129      C3134   1.398       .  A
C3129      H3139   1.082       .  S
C3130      C3131   1.408       .  A
C3130      C3135   1.495       .  S
C3131      C3132   1.401       .  A
C3131      H3136   1.083       .  S
C3132      C3133   1.405       .  A
C3132      H3137   1.083       .  S
C3133      C3134   1.403       .  A
C3134      H3138   1.084       .  S
C3135      C3140   1.409       .  A
C3135      C3144   1.407       .  A
C3140      C3141   1.402       .  A
C3140      H3145   1.082       .  S
C3141      C3142   1.404       .  A
C3141      H3146   1.083       .  S
C3142      C3143   1.406       .  A
C3143      C3144   1.399       .  A
C3143      H3147   1.083       .  S
C3144      H3148   1.083       .  S
C3149      C3150   1.406       .  A
C3149      C3154   1.401       .  A
C3149      H3159   1.083       .  S
C3150      C3151   1.406       .  A
C3150      C3155   1.488       .  S
C3151      C3152   1.397       .  A
C3151      H3156   1.083       .  S
C3152      C3153   1.404       .  A
C3152      H3157   1.084       .  S
C3153      C3154   1.405       .  A
C3154      H3158   1.083       .  S
C3155      C3160   1.404       .  A
C3155      C3164   1.408       .  A
C3160      C3161   1.396       .  A
C3160      H3165   1.083       .  S
C3161      C3162   1.405       .  A
C3161      H3166   1.083       .  S
C3162      C3163   1.405       .  A
C3163      C3164   1.404       .  A
C3163      H3167   1.083       .  S
C3164      H3168   1.083       .  S
C3169      C3170   1.408       .  A
C3169      C3174   1.397       .  A
C3169      H3179   1.082       .  S
C3170      C3171   1.409       .  A
C3170      C3175   1.494       .  S
C3171      C3172   1.403       .  A
C3171      H3176   1.083       .  S
C3172      C3173   1.406       .  A
C3172      H3177   1.083       .  S
C3173      C3174   1.403       .  A
C3174      H3178   1.083       .  S
C3175      C3180   1.409       .  A
C3175      C3184   1.408       .  A
C3180      C3181   1.402       .  A
C3180      H3185   1.082       .  S
C3181      C3182   1.403       .  A
C3181      H3186   1.084       .  S
C3182      C3183   1.404       .  A
C3183      C3184   1.398       .  A
C3183      H3187   1.084       .  S
C3184      H3188   1.083       .  S
C3189      C3190   1.408       .  A
C3189      C3194   1.405       .  A
C3189      H3199   1.083       .  S
C3190      C3191   1.408       .  A
C3190      C3195   1.497       .  S
C3191      C3192   1.402       .  A
C3191      H3196   1.083       .  S
C3192      C3193   1.406       .  A
C3192      H3197   1.083       .  S
C3193      C3194   1.406       .  A
C3194      H3198   1.083       .  S
C3195      C3200   1.408       .  A
C3195      C3204   1.408       .  A
C3200      C3201   1.403       .  A
C3200      H3205   1.083       .  S
C3201      C3202   1.406       .  A
C3201      H3206   1.083       .  S
C3202      C3203   1.406       .  A
C3203      C3204   1.402       .  A
C3203      H3207   1.083       .  S
C3204      H3208   1.083       .  S
C3209      C3210   1.406       .  A
C3209      C3214   1.400       .  A
C3209      H3219   1.083       .  S
C3210      C3211   1.407       .  A
C3210      C3215   1.490       .  S
C3211      C3212   1.400       .  A
C3211      H3216   1.083       .  S
C3212      C3213   1.406       .  A
C3212      H3217   1.084       .  S
C3213      C3214   1.405       .  A
C3214      H3218   1.083       .  S
C3215      C3220   1.407       .  A
C3215      C3224   1.407       .  A
C3220      C3221   1.399       .  A
C3220      H3225   1.082       .  S
C3221      C3222   1.404       .  A
C3221      H3226   1.083       .  S
C3222      C3223   1.405       .  A
C3223      C3224   1.401       .  A
C3223      H3227   1.083       .  S
C3224      H3228   1.083       .  S
C3229      C3230   1.409       .  A
C3229      C3234   1.401       .  A
C3229      H3239   1.082       .  S
C3230      C3231   1.406       .  A
C3230      C3235   1.493       .  S
C3231      C3232   1.400       .  A
C3231      H3236   1.083       .  S
C3232      C3233   1.406       .  A
C3232      H3237   1.083       .  S
C3233      C3234   1.404       .  A
C3234      H3238   1.083       .  S
C3235      C3240   1.409       .  A
C3235      C3244   1.406       .  A
C3240      C3241   1.401       .  A
C3240      H3245   1.082       .  S
C3241      C3242   1.404       .  A
C3241      H3246   1.083       .  S
C3242      C3243   1.406       .  A
C3243      C3244   1.400       .  A
C3243      H3247   1.082       .  S
C3244      H3248   1.083       .  S
C3249      C3250   1.409       .  A
C3249      C3254   1.404       .  A
C3249      H3259   1.082       .  S
C3250      C3251   1.407       .  A
C3250      C3255   1.495       .  S
C3251      C3252   1.402       .  A
C3251      H3256   1.083       .  S
C3252      C3253   1.404       .  A
C3252      H3257   1.083       .  S
C3253      C3254   1.404       .  A
C3254      H3258   1.084       .  S
C3255      C3260   1.406       .  A
C3255      C3264   1.409       .  A
C3260      C3261   1.403       .  A
C3260      H3265   1.083       .  S
C3261      C3262   1.408       .  A
C3261      H3266   1.082       .  S
C3262      C3263   1.404       .  A
C3263      C3264   1.403       .  A
C3263      H3267   1.083       .  S
C3264      H3268   1.082       .  S
C3269      C3270   1.409       .  A
C3269      C3274   1.401       .  A
C3269      H3279   1.082       .  S
C3270      C3271   1.408       .  A
C3270      C3275   1.496       .  S
C3271      C3272   1.405       .  A
C3271      H3276   1.083       .  S
C3272      C3273   1.407       .  A
C3272      H3277   1.083       .  S
C3273      C3274   1.404       .  A
C3274      H3278   1.083       .  S
C3275      C3280   1.408       .  A
C3275      C3284   1.408       .  A
C3280      C3281   1.402       .  A
C3280      H3285   1.083       .  S
C3281      C3282   1.404       .  A
C3281      H3286   1.083       .  S
C3282      C3283   1.404       .  A
C3283      C3284   1.403       .  A
C3283      H3287   1.084       .  S
C3284      H3288   1.082       .  S
C3289      C3290   1.407       .  A
C3289      C3294   1.404       .  A
C3289      H3299   1.084       .  S
C3290      C3291   1.402       .  A
C3290      C3295   1.484       .  S
C3291      C3292   1.398       .  A
C3291      H3296   1.083       .  S
C3292      C3293   1.406       .  A
C3292      H3297   1.083       .  S
C3293      C3294   1.404       .  A
C3294      H3298   1.079       .  S
C3295      C3300   1.402       .  A
C3295      C3304   1.408       .  A
C3300      C3301   1.397       .  A
C3300      H3305   1.084       .  S
C3301      C3302   1.404       .  A
C3301      H3306   1.082       .  S
C3302      C3303   1.403       .  A
C3303      C3304   1.405       .  A
C3303      H3307   1.083       .  S
C3304      H3308   1.082       .  S
C3309      C3310   1.407       .  A
C3309      C3314   1.402       .  A
C3309      H3319   1.083       .  S
C3310      C3311   1.409       .  A
C3310      C3315   1.495       .  S
C3311      C3312   1.401       .  A
C3311      H3316   1.082       .  S
C3312      C3313   1.402       .  A
C3312      H3317   1.084       .  S
C3313      C3314   1.404       .  A
C3314      H3318   1.082       .  S
C3315      C3320   1.408       .  A
C3315      C3324   1.408       .  A
C3320      C3321   1.405       .  A
C3320      H3325   1.084       .  S
C3321      C3322   1.408       .  A
C3321      H3326   1.082       .  S
C3322      C3323   1.404       .  A
C3323      C3324   1.400       .  A
C3323      H3327   1.084       .  S
C3324      H3328   1.082       .  S
C3329      C3330   1.410       .  A
C3329      C3334   1.402       .  A
C3329      H3339   1.083       .  S
C3330      C3331   1.407       .  A
C3330      C3335   1.494       .  S
C3331      C3332   1.398       .  A
C3331      H3336   1.083       .  S
C3332      C3333   1.403       .  A
C3332      H3337   1.083       .  S
C3333      C3334   1.402       .  A
C3334      H3338   1.083       .  S
C3335      C3340   1.407       .  A
C3335      C3344   1.410       .  A
C3340      C3341   1.397       .  A
C3340      H3345   1.083       .  S
C3341      C3342   1.404       .  A
C3341      H3346   1.083       .  S
C3342      C3343   1.404       .  A
C3343      C3344   1.403       .  A
C3343      H3347   1.083       .  S
C3344      H3348   1.082       .  S
C3349      C3350   1.407       .  A
C3349      C3354   1.401       .  A
C3349      H3359   1.082       .  S
C3350      C3351   1.410       .  A
C3350      C3355   1.498       .  S
C3351      C3352   1.405       .  A
C3351      H3356   1.083       .  S
C3352      C3353   1.404       .  A
C3352      H3357   1.082       .  S
C3353      C3354   1.404       .  A
C3354      H3358   1.084       .  S
C3355      C3360   1.408       .  A
C3355      C3364   1.409       .  A
C3360      C3361   1.403       .  A
C3360      H3365   1.083       .  S
C3361      C3362   1.407       .  A
C3361      H3366   1.082       .  S
C3362      C3363   1.404       .  A
C3363      C3364   1.403       .  A
C3363      H3367   1.083       .  S
C3364      H3368   1.082       .  S
C3369      C3370   1.410       .  A
C3369      C3374   1.404       .  A
C3369      H3379   1.082       .  S
C3370      C3371   1.406       .  A
C3370      C3375   1.492       .  S
C3371      C3372   1.398       .  A
C3371      H3376   1.083       .  S
C3372      C3373   1.401       .  A
C3372      H3377   1.082       .  S
C3373      C3374   1.402       .  A
C3374      H3378   1.082       .  S
C3375      C3380   1.406       .  A
C3375      C3384   1.409       .  A
C3380      C3381   1.399       .  A
C3380      H3385   1.083       .  S
C3381      C3382   1.404       .  A
C3381      H3386   1.084       .  S
C3382      C3383   1.403       .  A
C3383      C3384   1.403       .  A
C3383      H3387   1.080       .  S
C3384      H3388   1.084       .  S
C3389      C3390   1.411       .  A
C3389      C3394   1.406       .  A
C3389      H3399   1.083       .  S
C3390      C3391   1.405       .  A
C3390      C3395   1.497       .  S
C3391      C3392   1.399       .  A
C3391      H3396   1.083       .  S
C3392      C3393   1.407       .  A
C3392      H3397   1.083       .  S
C3393      C3394   1.405       .  A
C3394      H3398   1.082       .  S
C3395      C3400   1.406       .  A
C3395      C3404   1.411       .  A
C3400      C3401   1.399       .  A
C3400      H3405   1.083       .  S
C3401      C3402   1.406       .  A
C3401      H3406   1.084       .  S
C3402      C3403   1.405       .  A
C3403      C3404   1.406       .  A
C3403      H3407   1.084       .  S
C3404      H3408   1.083       .  S
C3409      C3410   1.405       .  A
C3409      C3414   1.401       .  A
C3409      H3419   1.084       .  S
C3410      C3411   1.409       .  A
C3410      C3415   1.494       .  S
C3411      C3412   1.405       .  A
C3411      H3416   1.081       .  S
C3412      C3413   1.403       .  A
C3412      H3417   1.085       .  S
C3413      C3414   1.405       .  A
C3414      H3418   1.082       .  S
C3415      C3420   1.406       .  A
C3415      C3424   1.408       .  A
C3420      C3421   1.404       .  A
C3420      H3425   1.084       .  S
C3421      C3422   1.408       .  A
C3421      H3426   1.082       .  S
C3422      C3423   1.406       .  A
C3423      C3424   1.404       .  A
C3423      H3427   1.084       .  S
C3424      H3428   1.083       .  S
C3429      C3430   1.405       .  A
C3429      C3434   1.401       .  A
C3429      H3439   1.082       .  S
C3430      C3431   1.404       .  A
C3430      C3435   1.485       .  S
C3431      C3432   1.404       .  A
C3431      H3436   1.084       .  S
C3432      C3433   1.405       .  A
C3432      H3437   1.083       .  S
C3433      C3434   1.404       .  A
C3434      H3438   1.085       .  S
C3435      C3440   1.404       .  A
C3435      C3444   1.404       .  A
C3440      C3441   1.399       .  A
C3440      H3445   1.083       .  S
C3441      C3442   1.404       .  A
C3441      H3446   1.083       .  S
C3442      C3443   1.410       .  A
C3443      C3444   1.406       .  A
C3443      H3447   1.082       .  S
C3444      H3448   1.084       .  S
C3449      C3450   1.411       .  A
C3449      C3454   1.402   1_455  A
C3449      H3459   1.081       .  S
C3450      C3451   1.411       .  A
C3450      C3455   1.502       .  S
C3451      C3452   1.401   1_455  A
C3451      H3456   1.082       .  S
C3452      C3453   1.402       .  A
C3452      H3457   1.083       .  S
C3453      C3454   1.400       .  A
C3454      H3458   1.083       .  S
C3455      C3460   1.411       .  A
C3455      C3464   1.410       .  A
C3460      C3461   1.404       .  A
C3460      H3465   1.082       .  S
C3461      C3462   1.404       .  A
C3461      H3466   1.083       .  S
C3462      C3463   1.402       .  A
C3463      C3464   1.399       .  A
C3463      H3467   1.083       .  S
C3464      H3468   1.081       .  S
C3469      C3470   1.407       .  A
C3469      C3474   1.400       .  A
C3469      H3479   1.082       .  S
C3470      C3471   1.408       .  A
C3470      C3475   1.496       .  S
C3471      C3472   1.405       .  A
C3471      H3476   1.084       .  S
C3472      C3473   1.405       .  A
C3472      H3477   1.082       .  S
C3473      C3474   1.403       .  A
C3474      H3478   1.084       .  S
C3475      C3480   1.407       .  A
C3475      C3484   1.409       .  A
C3480      C3481   1.402       .  A
C3480      H3485   1.083       .  S
C3481      C3482   1.406       .  A
C3481      H3486   1.082       .  S
C3482      C3483   1.406       .  A
C3483      C3484   1.404       .  A
C3483      H3487   1.083       .  S
C3484      H3488   1.083       .  S
C3489      C3490   1.405       .  A
C3489      C3494   1.399       .  A
C3489      H3499   1.083       .  S
C3490      C3491   1.408       .  A
C3490      C3495   1.489       .  S
C3491      C3492   1.403       .  A
C3491      H3496   1.083       .  S
C3492      C3493   1.404       .  A
C3492      H3497   1.083       .  S
C3493      C3494   1.405       .  A
C3494      H3498   1.084       .  S
C3495      C3500   1.409       .  A
C3495      C3504   1.405       .  A
C3500      C3501   1.405       .  A
C3500      H3505   1.082       .  S
C3501      C3502   1.403       .  A
C3501      H3506   1.084       .  S
C3502      C3503   1.403       .  A
C3503      C3504   1.397       .  A
C3503      H3507   1.083       .  S
C3504      H3508   1.084       .  S
C3509      C3510   1.409       .  A
C3509      C3514   1.406       .  A
C3509      H3519   1.082       .  S
C3510      C3511   1.406       .  A
C3510      C3515   1.498       .  S
C3511      C3512   1.403       .  A
C3511      H3516   1.084       .  S
C3512      C3513   1.407       .  A
C3512      H3517   1.083       .  S
C3513      C3514   1.404       .  A
C3514      H3518   1.083       .  S
C3515      C3520   1.406       .  A
C3515      C3524   1.409       .  A
C3520      C3521   1.406       .  A
C3520      H3525   1.084       .  S
C3521      C3522   1.408       .  A
C3521      H3526   1.082       .  S
C3522      C3523   1.406       .  A
C3523      C3524   1.405       .  A
C3523      H3527   1.083       .  S
C3524      H3528   1.082       .  S
C3529      C3530   1.406       .  A
C3529      C3534   1.402   1_455  A
C3529      H3539   1.083       .  S
C3530      C3531   1.411       .  A
C3530      C3535   1.498       .  S
C3531      C3532   1.404   1_455  A
C3531      H3536   1.082       .  S
C3532      C3533   1.402       .  A
C3532      H3537   1.082       .  S
C3533      C3534   1.405       .  A
C3534      H3538   1.081       .  S
C3535      C3540   1.412       .  A
C3535      C3544   1.406       .  A
C3540      C3541   1.408       .  A
C3540      H3545   1.082       .  S
C3541      C3542   1.403       .  A
C3541      H3546   1.082       .  S
C3542      C3543   1.403       .  A
C3543      C3544   1.397       .  A
C3543      H3547   1.083       .  S
C3544      H3548   1.083       .  S
C3549      C3550   1.412       .  A
C3549      C3554   1.404       .  A
C3549      H3559   1.080       .  S
C3550      C3551   1.411       .  A
C3550      C3555   1.504       .  S
C3551      C3552   1.400       .  A
C3551      H3556   1.082       .  S
C3552      C3553   1.401       .  A
C3552      H3557   1.082       .  S
C3553      C3554   1.402       .  A
C3554      H3558   1.084       .  S
C3555      C3560   1.410       .  A
C3555      C3564   1.413       .  A
C3560      C3561   1.395       .  A
C3560      H3565   1.081       .  S
C3561      C3562   1.400       .  A
C3561      H3566   1.084       .  S
C3562      C3563   1.403       .  A
C3563      C3564   1.407       .  A
C3563      H3567   1.084       .  S
C3564      H3568   1.081       .  S
C3569      C3570   1.409       .  A
C3569      C3574   1.407       .  A
C3569      H3579   1.082       .  S
C3570      C3571   1.404       .  A
C3570      C3575   1.492       .  S
C3571      C3572   1.397       .  A
C3571      H3576   1.084       .  S
C3572      C3573   1.404       .  A
C3572      H3577   1.083       .  S
C3573      C3574   1.404       .  A
C3574      H3578   1.084       .  S
C3575      C3580   1.405       .  A
C3575      C3584   1.408       .  A
C3580      C3581   1.405       .  A
C3580      H3585   1.083       .  S
C3581      C3582   1.409       .  A
C3581      H3586   1.082       .  S
C3582      C3583   1.403       .  A
C3583      C3584   1.400       .  A
C3583      H3587   1.083       .  S
C3584      H3588   1.083       .  S
C3589      C3590   1.408       .  A
C3589      C3594   1.398       .  A
C3589      H3599   1.082       .  S
C3590      C3591   1.408       .  A
C3590      C3595   1.497       .  S
C3591      C3592   1.408       .  A
C3591      H3596   1.083       .  S
C3592      C3593   1.409       .  A
C3592      H3597   1.082       .  S
C3593      C3594   1.403       .  A
C3594      H3598   1.084       .  S
C3595      C3600   1.407       .  A
C3595      C3604   1.409       .  A
C3600      C3601   1.399       .  A
C3600      H3605   1.082       .  S
C3601      C3602   1.404       .  A
C3601      H3606   1.085       .  S
C3602      C3603   1.406       .  A
C3603      C3604   1.408       .  A
C3603      H3607   1.082       .  S
C3604      H3608   1.083       .  S
C3609      C3610   1.410       .  A
C3609      C3614   1.403   1_455  A
C3609      H3619   1.083       .  S
C3610      C3611   1.410       .  A
C3610      C3615   1.500       .  S
C3611      C3612   1.402   1_455  A
C3611      H3616   1.082       .  S
C3612      C3613   1.401       .  A
C3612      H3617   1.084       .  S
C3613      C3614   1.401       .  A
C3614      H3618   1.083       .  S
C3615      C3620   1.410       .  A
C3615      C3624   1.409       .  A
C3620      C3621   1.405       .  A
C3620      H3625   1.082       .  S
C3621      C3622   1.404       .  A
C3621      H3626   1.083       .  S
C3622      C3623   1.401       .  A
C3623      C3624   1.400       .  A
C3623      H3627   1.077       .  S
C3624      H3628   1.082       .  S
C3629      C3630   1.409       .  A
C3629      C3634   1.403       .  A
C3629      H3639   1.082       .  S
C3630      C3631   1.408       .  A
C3630      C3635   1.497       .  S
C3631      C3632   1.401       .  A
C3631      H3636   1.083       .  S
C3632      C3633   1.403       .  A
C3632      H3637   1.083       .  S
C3633      C3634   1.403       .  A
C3634      H3638   1.084       .  S
C3635      C3640   1.407       .  A
C3635      C3644   1.410       .  A
C3640      C3641   1.403       .  A
C3640      H3645   1.083       .  S
C3641      C3642   1.407       .  A
C3641      H3646   1.083       .  S
C3642      C3643   1.403       .  A
C3643      C3644   1.402       .  A
C3643      H3647   1.083       .  S
C3644      H3648   1.082       .  S
C3649      C3650   1.409       .  A
C3649      C3654   1.400       .  A
C3649      H3659   1.082       .  S
C3650      C3651   1.409       .  A
C3650      C3655   1.496       .  S
C3651      C3652   1.399       .  A
C3651      H3656   1.083       .  S
C3652      C3653   1.402       .  A
C3652      H3657   1.080       .  S
C3653      C3654   1.404       .  A
C3654      H3658   1.085       .  S
C3655      C3660   1.411       .  A
C3655      C3664   1.408       .  A
C3660      C3661   1.405       .  A
C3660      H3665   1.082       .  S
C3661      C3662   1.403       .  A
C3661      H3666   1.083       .  S
C3662      C3663   1.402       .  A
C3663      C3664   1.394       .  A
C3663      H3667   1.083       .  S
C3664      H3668   1.082       .  S
C3669      C3670   1.409       .  A
C3669      C3674   1.406       .  A
C3669      H3679   1.082       .  S
C3670      C3671   1.407       .  A
C3670      C3675   1.497       .  S
C3671      C3672   1.401       .  A
C3671      H3676   1.084       .  S
C3672      C3673   1.404       .  A
C3672      H3677   1.082       .  S
C3673      C3674   1.405       .  A
C3674      H3678   1.085       .  S
C3675      C3680   1.409       .  A
C3675      C3684   1.407       .  A
C3680      C3681   1.405       .  A
C3680      H3685   1.082       .  S
C3681      C3682   1.406       .  A
C3681      H3686   1.083       .  S
C3682      C3683   1.407       .  A
C3683      C3684   1.402       .  A
C3683      H3687   1.082       .  S
C3684      H3688   1.084       .  S
C3689      C3690   1.407       .  A
C3689      C3694   1.402   1_455  A
C3689      H3699   1.083       .  S
C3690      C3691   1.408       .  A
C3690      C3695   1.491       .  S
C3691      C3692   1.402       .  A
C3691      H3696   1.083       .  S
C3692      C3693   1.404   1_455  A
C3692      H3697   1.082   1_455  S
C3693      C3694   1.405       .  A
C3694      H3698   1.083       .  S
C3695      C3700   1.408       .  A
C3695      C3704   1.408       .  A
C3700      C3701   1.400       .  A
C3700      H3705   1.082       .  S
C3701      C3702   1.401       .  A
C3701      H3706   1.083       .  S
C3702      C3703   1.403       .  A
C3703      C3704   1.403       .  A
C3703      H3707   1.082       .  S
C3704      H3708   1.084       .  S
C3709      C3710   1.405       .  A
C3709      C3714   1.398       .  A
C3709      H3719   1.083       .  S
C3710      C3711   1.411       .  A
C3710      C3715   1.493       .  S
C3711      C3712   1.407       .  A
C3711      H3716   1.083   1_655  S
C3712      C3713   1.404       .  A
C3712      H3717   1.083       .  S
C3713      C3714   1.404       .  A
C3714      H3718   1.083       .  S
C3715      C3720   1.410       .  A
C3715      C3724   1.406       .  A
C3720      C3721   1.406       .  A
C3720      H3725   1.083       .  S
C3721      C3722   1.404       .  A
C3721      H3726   1.083       .  S
C3722      C3723   1.403       .  A
C3723      C3724   1.399       .  A
C3723      H3727   1.084       .  S
C3724      H3728   1.083       .  S
