geometry optimzed in LAMMPS
_audit_creation_date              2020-11-30 
_audit_creation_method            'lammps2cif' 
_symmetry_space_group_name_H-M    'P1' 
_symmetry_Int_Tables_number       1 
_symmetry_cell_setting            triclinic 
loop_ 
_symmetry_equiv_pos_as_xyz 
  x,y,z 
_cell_length_a                    34.68573383 
_cell_length_b                    34.20320854244538 
_cell_length_c                    24.61815786505091 
_cell_angle_alpha                 90.8724821000065 
_cell_angle_beta                  90.71310394090867 
_cell_angle_gamma                 90.52028560519598 
loop_ 
_atom_site_label 
_atom_site_type_symbol 
_atom_site_fract_x 
_atom_site_fract_y 
_atom_site_fract_z 
_atom_site_charge 
C1          C  0.24611886  0.75194875  0.96300229     0.00100
C2          C  0.25969321  0.73520337  0.53686250     0.00100
C3          C  0.73884443  0.25454885  0.95844375     0.00100
C4          C  0.74683459  0.24059746  0.55039131     0.00100
N5          N  0.08825478  0.74606081  0.05380752    -0.00900
C6          C  0.06162152  0.77311919  0.03842714     0.01700
C7          C  0.03195229  0.75544242  0.00875106    -0.21200
C8          C  0.03779880  0.71619268  0.01113201    -0.21400
C9          C  0.07010099  0.71101299  0.04362806     0.01600
H10         H  0.00507082  0.76857798  0.99620898     0.15400
H11         H  0.01595443  0.69421695  0.00144657     0.15400
N12         N  0.13578760  0.74558772  0.70134792    -0.00900
C13         C  0.13220171  0.77797341  0.73390441     0.01700
C14         C  0.14991445  0.77116467  0.78365267    -0.21200
C15         C  0.15479312  0.73145860  0.78589510    -0.21400
C16         C  0.13871739  0.71647202  0.73826652     0.01600
H17         H  0.15132798  0.79096180  0.81828474     0.15400
H18         H  0.15979269  0.71519321  0.82244121     0.15400
N19         N  0.74296965  0.41926180  0.04826387    -0.00900
C20         C  0.71247466  0.44286355  0.03555130     0.01700
C21         C  0.72514860  0.47278036  0.00235273    -0.21200
C22         C  0.76437599  0.47261785  0.00457260    -0.21400
C23         C  0.77439403  0.44264777  0.03867268     0.01600
H24         H  0.70918864  0.49795415  0.98927387     0.15400
H25         H  0.78269401  0.49663873  0.99260138     0.15400
N26         N  0.76857816  0.37356204  0.70853473    -0.00900
C27         C  0.79868440  0.37023130  0.74432750     0.01700
C28         C  0.78444133  0.35413430  0.79137472    -0.21200
C29         C  0.74572169  0.36166102  0.79049172    -0.21400
C30         C  0.73895418  0.38132695  0.74267980     0.01600
H31         H  0.80041390  0.34547934  0.82668014     0.03800
H32         H  0.72745860  0.36091770  0.82559084     0.15400
N33         N  0.37456117  0.75310432  0.12607911    -0.00900
C34         C  0.37346541  0.78770549  0.15463282     0.01700
C35         C  0.36234214  0.78097600  0.20733071    -0.21200
C36         C  0.36378266  0.74155656  0.21450657    -0.21400
C37         C  0.37653265  0.72576880  0.16595164     0.01600
H38         H  0.36239987  0.80226982  0.24005426     0.15400
H39         H  0.36391213  0.72753055  0.25351710     0.15400
N40         N  0.39655534  0.72357991  0.67989864    -0.00900
C41         C  0.39031453  0.75139148  0.71860358     0.01700
C42         C  0.37513741  0.73316597  0.76388469    -0.21200
C43         C  0.38318701  0.69417270  0.75752138    -0.21400
C44         C  0.40410161  0.69132046  0.71003555     0.01600
H45         H  0.36966208  0.74622131  0.80326594     0.15400
H46         H  0.38532805  0.67440858  0.79125704     0.15400
N47         N  0.74548244  0.12048735  0.11070635    -0.00900
C48         C  0.71785026  0.11678509  0.14979416     0.01700
C49         C  0.73409253  0.12244107  0.20104904    -0.21200
C50         C  0.77296756  0.12158973  0.19469053    -0.21400
C51         C  0.77906837  0.11757254  0.13969860     0.01600
H52         H  0.71978897  0.11804811  0.23933944     0.15400
H53         H  0.79396071  0.11716596  0.22691730     0.15400
N54         N  0.75351523  0.10996438  0.70816528    -0.00900
C55         C  0.78507856  0.11014411  0.74165213     0.01700
C56         C  0.77369713  0.12322272  0.79283306    -0.21200
C57         C  0.73442655  0.11932270  0.79352304    -0.21400
C58         C  0.72408134  0.10405160  0.74308387     0.01600
H59         H  0.79066934  0.12461562  0.82981106     0.15400
H60         H  0.71788579  0.11681815  0.83039831     0.15400
N61         N  0.86993793  0.23544634  0.38229872    -0.00900
C62         C  0.86861251  0.26705745  0.34873423     0.01700
C63         C  0.85307271  0.25556808  0.29892485    -0.21200
C64         C  0.85497724  0.21571382  0.29704850    -0.21400
C65         C  0.87038114  0.20455710  0.34658883     0.01600
H66         H  0.85173353  0.27341829  0.26305944     0.15400
H67         H  0.85467385  0.19871115  0.25967088     0.15400
N68         N  0.88318231  0.24388423  0.83146822    -0.00900
C69         C  0.90742861  0.27558757  0.83893718     0.01700
C70         C  0.94247850  0.26489595  0.86091439    -0.21200
C71         C  0.94228216  0.22548999  0.86245574    -0.21400
C72         C  0.90721074  0.21297992  0.84081999     0.01600
H73         H  0.96775791  0.28334618  0.86698572     0.15400
H74         H  0.96766483  0.20798496  0.86932836     0.15400
Zn75       Zn  0.96654186  0.97217063  0.21471991     1.49700
Zn76       Zn  0.02608528  0.02265894  0.29532673     1.49400
Zn77       Zn  0.05733775  0.98418167  0.19255105     1.49100
Zn78       Zn  0.00314171  0.05603908  0.18264131     1.49500
O79         O  0.01212180  0.00821022  0.22179019    -1.81600
O80         O  0.95060639  0.95561997  0.29244480    -0.72200
O81         O  0.07927224  0.00534548  0.32042730    -0.72000
O82         O  0.04742014  0.92782225  0.18051121    -0.71500
O83         O  0.99356399  0.99131402  0.33996118    -0.72200
O84         O  0.98364686  0.92332018  0.16952880    -0.71800
O85         O  0.10435626  0.98453002  0.24271376    -0.72400
O86         O  0.02985520  0.05634945  0.10894735    -0.71800
O87         O  0.00709147  0.07624351  0.31516808    -0.72500
O88         O  0.06350355  0.00154513  0.11546497    -0.71900
O89         O  0.99973436  0.10346943  0.23398279    -0.72400
O90         O  0.94935452  0.05597880  0.15792923    -0.72300
O91         O  0.91992490  0.00063680  0.17773930    -0.72100
C92         C  0.96586464  0.96714429  0.33758169     0.79700
C93         C  0.10642487  0.98914231  0.29423757     0.80200
C94         C  0.01758771  0.90929624  0.16405250     0.79200
C95         C  0.04851003  0.02833959  0.08687969     0.79500
C96         C  0.99425024  0.10335358  0.28534340     0.80700
C97         C  0.91913032  0.03507859  0.15795324     0.79700
Zn98       Zn  0.96411725  0.94956726  0.77885657     1.49700
Zn99       Zn  0.00663662  0.94177449  0.66729905     1.49400
Zn100      Zn  0.94227412  0.99889401  0.67209716     1.49100
Zn101      Zn  0.01889359  0.01855043  0.74019735     1.49500
O102        O  0.98343008  0.97834333  0.71553346    -1.81600
O103        O  0.98539366  0.89315339  0.77164363    -0.72200
O104        O  0.99614391  0.95006425  0.58802812    -0.72000
O105        O  0.89809093  0.96658445  0.69382872    -0.71500
O106        O  0.98481015  0.88983942  0.68255827    -0.72200
O107        O  0.90643507  0.96485579  0.78238374    -0.71800
O108        O  0.94693451  0.99072273  0.59108436    -0.72400
O109        O  0.99340084  0.07189379  0.72714406    -0.71800
O110        O  0.06113216  0.93936156  0.69183319    -0.72500
O111        O  0.93420394  0.05449800  0.69754994    -0.71900
O112        O  0.07388342  0.00041612  0.72132964    -0.72400
O113        O  0.02449043  0.02080956  0.82155342    -0.72300
O114        O  0.98928935  0.97084151  0.84921813    -0.72100
C115        C  0.99547304  0.87598644  0.72758549     0.79700
C116        C  0.96921533  0.96848936  0.56416713     0.80200
C117        C  0.88680686  0.97561561  0.74093823     0.79200
C118        C  0.95736319  0.07914599  0.72013589     0.79500
C119        C  0.08338217  0.96439773  0.71502577     0.80700
C120        C  0.01222113  0.99948250  0.85943666     0.79700
N121        N  0.24780644  0.87223233  0.39099407    -0.00900
C122        C  0.27758644  0.86932847  0.35555979     0.01700
C123        C  0.26385471  0.85784201  0.30454313    -0.21200
C124        C  0.22488647  0.86239329  0.30583029    -0.21400
C125        C  0.21657935  0.87705109  0.35710499     0.01600
H126        H  0.28011496  0.85651146  0.26769489     0.15400
H127        H  0.20677147  0.86523699  0.26939131     0.15400
N128        N  0.24103328  0.90517175  0.85331442    -0.00900
C129        C  0.20597997  0.92273284  0.85729713     0.01700
C130        C  0.20962587  0.95883092  0.88275897    -0.21200
C131        C  0.24803181  0.96665564  0.88735382    -0.21400
C132        C  0.26695771  0.93428433  0.86669904     0.01600
H133        H  0.18734290  0.98071080  0.88598233     0.15400
H134        H  0.25990586  0.99537614  0.89587735     0.15400
Zn135      Zn  0.44317435  0.99911361  0.19917782     1.49700
Zn136      Zn  0.45584090  0.03884852  0.31121739     1.49400
Zn137      Zn  0.52138142  0.97970751  0.25699394     1.49100
Zn138      Zn  0.50008288  0.06741666  0.21177882     1.49500
O139        O  0.48205320  0.02135718  0.24616099    -1.81600
O140        O  0.40234898  0.97577443  0.24589796    -0.72200
O141        O  0.48471528  0.01661325  0.37086931    -0.72000
O142        O  0.49548852  0.92645003  0.22558969    -0.71500
O143        O  0.40328717  0.01213641  0.32154876    -0.72200
O144        O  0.46473830  0.95449246  0.15826364    -0.71800
O145        O  0.52971870  0.97533632  0.34230411    -0.72400
O146        O  0.55319059  0.05812426  0.19283944    -0.71800
O147        O  0.46436492  0.09695887  0.32989533    -0.72500
O148        O  0.57286038  0.99910238  0.21650503    -0.71900
O149        O  0.50428209  0.11351581  0.26401003    -0.72400
O150        O  0.47694445  0.07229735  0.13676484    -0.72300
O151        O  0.42537463  0.03386798  0.13955785    -0.72100
C152        C  0.39024392  0.98300022  0.29363147     0.79700
C153        C  0.51180925  0.99318972  0.38071286     0.80200
C154        C  0.47270442  0.92386626  0.18401220     0.79200
C155        C  0.57907375  0.03236865  0.19384093     0.79500
C156        C  0.48975654  0.12007657  0.31053409     0.80700
C157        C  0.44974280  0.05342950  0.11256340     0.79700
Zn158      Zn  0.48359925  0.01190647  0.72600130     1.49700
Zn159      Zn  0.54526634  0.94120754  0.71251602     1.49400
Zn160      Zn  0.55255908  0.00105312  0.81010549     1.49100
Zn161      Zn  0.48684519  0.94278393  0.80536111     1.49500
O162        O  0.51750288  0.97511644  0.76068329    -1.81600
O163        O  0.49209017  0.00611067  0.64224504    -0.72200
O164        O  0.60190205  0.95685401  0.71916829    -0.72000
O165        O  0.55922304  0.05579378  0.78784905    -0.71500
O166        O  0.53180663  0.95525233  0.63647107    -0.72200
O167        O  0.50035993  0.06704458  0.75454184    -0.71800
O168        O  0.60557337  0.97850216  0.80471057    -0.72400
O169        O  0.47766684  0.96875766  0.87821146    -0.71800
O170        O  0.52433665  0.88561136  0.72159758    -0.72500
O171        O  0.52906083  0.00734056  0.88522427    -0.71900
O172        O  0.50786599  0.88938029  0.80796860    -0.72400
O173        O  0.43559803  0.93600541  0.77149146    -0.72300
O174        O  0.42735931  0.99838679  0.75153291    -0.72100
C175        C  0.51195392  0.98174283  0.61408836     0.79700
C176        C  0.62028519  0.97441393  0.75775589     0.80200
C177        C  0.53244661  0.07910503  0.77547630     0.79200
C178        C  0.49707227  0.99502198  0.90388429     0.79500
C179        C  0.50715924  0.87127546  0.76247769     0.80700
C180        C  0.41383066  0.96514801  0.76619709     0.79700
N181        N  0.59053495  0.25563684  0.45085648    -0.00900
C182        C  0.57534395  0.29106158  0.46440221     0.01700
C183        C  0.54949736  0.28627085  0.50629833    -0.21200
C184        C  0.54159597  0.24712290  0.50817330    -0.21400
C185        C  0.56220666  0.23017520  0.46624836     0.01600
H186        H  0.53096429  0.30843565  0.52367895     0.15400
H187        H  0.51783819  0.23458558  0.52998966     0.15400
N188        N  0.58385821  0.26159823  0.85395298    -0.00900
C189        C  0.56594529  0.29698521  0.85585532     0.01700
C190        C  0.52780893  0.29265455  0.87030901    -0.21200
C191        C  0.52049650  0.25365740  0.87248946    -0.21400
C192        C  0.55470165  0.23505728  0.86100512     0.01600
H193        H  0.50598349  0.31514539  0.86964901     0.15400
H194        H  0.49205996  0.24052710  0.87521513     0.15400
Zn195      Zn  0.98977835  0.43507740  0.19499655     1.49700
Zn196      Zn  0.02001972  0.46271423  0.30693813     1.49400
Zn197      Zn  0.05840802  0.49531100  0.20370048     1.49100
Zn198      Zn  0.97252330  0.52562777  0.23233413     1.49500
O199        O  0.00928414  0.48079179  0.23464852    -1.81600
O200        O  0.98424212  0.38552824  0.23977620    -0.72200
O201        O  0.07522371  0.47077311  0.33141554    -0.72000
O202        O  0.06584816  0.47016678  0.13114321    -0.71500
O203        O  0.99474855  0.41080384  0.32236728    -0.72200
O204        O  0.01422057  0.43150717  0.12130884    -0.71800
O205        O  0.10286481  0.49252847  0.25642997    -0.72400
O206        O  0.99841351  0.57242689  0.19170161    -0.71800
O207        O  0.99471238  0.49826566  0.35603514    -0.72500
O208        O  0.05812152  0.55104229  0.18223401    -0.71900
O209        O  0.96151233  0.54364997  0.31212042    -0.72400
O210        O  0.92131689  0.50671855  0.19223346    -0.72300
O211        O  0.93605897  0.44512760  0.17359997    -0.72100
C212        C  0.98156125  0.38360842  0.29136622     0.79700
C213        C  0.10374711  0.48597973  0.30719015     0.80200
C214        C  0.04241556  0.45035068  0.10135105     0.79200
C215        C  0.03326542  0.57762627  0.17612790     0.79500
C216        C  0.97369879  0.52821924  0.35611456     0.80700
C217        C  0.91222176  0.47292126  0.17206952     0.79700
Zn218      Zn  0.02175054  0.54362430  0.68734965     1.49700
Zn219      Zn  0.97463255  0.53729626  0.79740948     1.49400
Zn220      Zn  0.95393596  0.48994110  0.68645444     1.49100
Zn221      Zn  0.02742611  0.46732352  0.75797580     1.49500
O222        O  0.99510773  0.50812359  0.73295733    -1.81600
O223        O  0.99629415  0.59296493  0.70364202    -0.72200
O224        O  0.91692526  0.51971708  0.80077102    -0.72000
O225        O  0.95902800  0.50287270  0.60755121    -0.71500
O226        O  0.99677759  0.59410250  0.79246093    -0.72200
O227        O  0.01315587  0.53755060  0.60623453    -0.71800
O228        O  0.91146255  0.52176494  0.71271705    -0.72400
O229        O  0.99975811  0.41462125  0.73996775    -0.71800
O230        O  0.99808540  0.51656878  0.86738406    -0.72500
O231        O  0.94311110  0.43385194  0.70504798    -0.71900
O232        O  0.02711976  0.46296929  0.83837262    -0.72400
O233        O  0.08407594  0.48746323  0.75128307    -0.72300
O234        O  0.07646588  0.54679905  0.71578870    -0.72100
C235        C  0.00805975  0.60844404  0.74761406     0.79700
C236        C  0.89969801  0.50838884  0.75706843     0.80200
C237        C  0.98344341  0.52329522  0.58185004     0.79200
C238        C  0.96379272  0.40850994  0.72879724     0.79500
C239        C  0.01664687  0.48535939  0.87669456     0.80700
C240        C  0.09665652  0.52232742  0.74216912     0.79700
N241        N  0.24897393  0.60470036  0.37705571    -0.00900
C242        C  0.26997863  0.60759027  0.33079450     0.01700
C243        C  0.24610471  0.61642675  0.28728441    -0.21200
C244        C  0.20927559  0.61313409  0.30545379    -0.21400
C245        C  0.21197576  0.60026715  0.35837115     0.01600
H246        H  0.25348396  0.61653196  0.24477738     0.15400
H247        H  0.18443488  0.60942555  0.27872345     0.15400
N248        N  0.26700070  0.60039539  0.84298542    -0.00900
C249        C  0.24185855  0.56890198  0.84262707     0.01700
C250        C  0.26121941  0.53432796  0.85044140    -0.21200
C251        C  0.29920455  0.54333898  0.85378718    -0.21400
C252        C  0.30257495  0.58314311  0.84696940     0.01600
H253        H  0.24922586  0.50495067  0.84817650     0.15400
H254        H  0.32246276  0.52230749  0.85342310     0.15400
Zn255      Zn  0.52815688  0.45023121  0.21252419     1.49700
Zn256      Zn  0.45772500  0.50523599  0.18859258     1.49400
Zn257      Zn  0.47470510  0.47950862  0.30468976     1.49100
Zn258      Zn  0.53408734  0.53943010  0.24721394     1.49500
O259        O  0.49887250  0.49425436  0.23922571    -1.81600
O260        O  0.52042336  0.44700044  0.13012732    -0.72200
O261        O  0.40484307  0.50329813  0.22128602    -0.72000
O262        O  0.48888422  0.42557735  0.32761119    -0.71500
O263        O  0.46536163  0.47856581  0.11743037    -0.72200
O264        O  0.52502871  0.40217635  0.26062024    -0.71800
O265        O  0.41985612  0.49663581  0.30851891    -0.72400
O266        O  0.54603494  0.54737462  0.33102562    -0.71800
O267        O  0.45826434  0.56118938  0.17004620    -0.72500
O268        O  0.49821839  0.51058044  0.36229130    -0.71900
O269        O  0.50525517  0.58881239  0.21939901    -0.72400
O270        O  0.58134087  0.52560277  0.19727186    -0.72300
O271        O  0.58388616  0.46309589  0.21834113    -0.72100
C272        C  0.49549673  0.46255714  0.09864519     0.79700
C273        C  0.39679235  0.50761296  0.27140476     0.80200
C274        C  0.51185696  0.40001176  0.30875353     0.79200
C275        C  0.52569216  0.53454622  0.37039788     0.79500
C276        C  0.47568660  0.59152119  0.18791031     0.80700
C277        C  0.59746972  0.49204370  0.19325111     0.79700
Zn278      Zn  0.51503028  0.51428726  0.71500822     1.49700
Zn279      Zn  0.59147452  0.57066272  0.69876249     1.49400
Zn280      Zn  0.53712634  0.57869874  0.80549293     1.49100
Zn281      Zn  0.58862253  0.51235864  0.78736294     1.49500
O282        O  0.55530269  0.54540549  0.74866173    -1.81600
O283        O  0.51963387  0.52263720  0.63165941    -0.72200
O284        O  0.58430196  0.62942485  0.70815800    -0.72000
O285        O  0.48228579  0.58912790  0.79366889    -0.71500
O286        O  0.57323267  0.55872725  0.62380150    -0.72200
O287        O  0.46214951  0.53746973  0.74424285    -0.71800
O288        O  0.56814561  0.62659540  0.79390225    -0.72400
O289        O  0.56783945  0.49726584  0.85946171    -0.71800
O290        O  0.64465395  0.54450077  0.70461778    -0.72500
O291        O  0.53790096  0.55234859  0.87906729    -0.71900
O292        O  0.64042535  0.53594964  0.79219978    -0.72400
O293        O  0.59210595  0.46435119  0.74447150    -0.72300
O294        O  0.52868025  0.45624568  0.73787803    -0.72100
C295        C  0.54452540  0.54059190  0.60262372     0.79700
C296        C  0.56181080  0.63945013  0.74633638     0.80200
C297        C  0.45516975  0.56833505  0.77321042     0.79200
C298        C  0.54755665  0.51765814  0.89144136     0.79500
C299        C  0.65776805  0.52941913  0.74804208     0.80700
C300        C  0.56265102  0.44241953  0.74652347     0.79700
C301        C  0.50040328  0.55000618  0.46208214     0.26200
C302        C  0.53269971  0.54516617  0.42823103    -0.21900
C303        C  0.56919253  0.54086251  0.45240456     0.21100
C304        C  0.57303194  0.53963869  0.50922900     0.26100
C305        C  0.54030169  0.54185445  0.54271784    -0.21900
C306        C  0.50412459  0.54805554  0.51859103     0.21000
F307        F  0.47235636  0.55250117  0.54972146    -0.11800
F308        F  0.46468688  0.55487508  0.44004186    -0.14200
F309        F  0.60857668  0.53428212  0.53145682    -0.14200
F310        F  0.60058624  0.53478838  0.42112996    -0.11800
C311        C  0.48303600  0.49628905  0.01046778     0.26200
C312        C  0.50458728  0.46878605  0.04025712    -0.21900
C313        C  0.53911981  0.45482961  0.01756293     0.21100
C314        C  0.55273001  0.46979676  0.96845572     0.26100
C315        C  0.53294039  0.50004217  0.94206794    -0.21900
C316        C  0.49722784  0.51186460  0.96255409     0.21000
F317        F  0.47561284  0.53856995  0.93595775    -0.11800
F318        F  0.44906280  0.51029431  0.02907610    -0.14200
F319        F  0.58593888  0.45556229  0.94774620    -0.14200
F320        F  0.56076482  0.42807315  0.04400242    -0.11800
C321        C  0.37089807  0.60283155  0.85816619     0.26200
C322        C  0.33934240  0.59647546  0.82300833    -0.21900
C323        C  0.34652649  0.58597795  0.76834678     0.21100
C324        C  0.38406634  0.57701167  0.75128960     0.26100
C325        C  0.41529531  0.58019360  0.78794953    -0.21900
C326        C  0.40844151  0.59535566  0.84075317     0.21000
F327        F  0.43780350  0.59983667  0.87738577    -0.11800
F328        F  0.36498396  0.61228667  0.91117182    -0.14200
F329        F  0.38964938  0.56398848  0.69966894    -0.14200
F330        F  0.31650957  0.57990437  0.73323475    -0.11800
C331        C  0.32813668  0.59251183  0.27473120     0.26200
C332        C  0.30623251  0.58529843  0.32136310    -0.21900
C333        C  0.31576858  0.55271553  0.35328127     0.21100
C334        C  0.34418663  0.52638339  0.33628457     0.26100
C335        C  0.36340418  0.53186550  0.28695654    -0.21900
C336        C  0.35569238  0.56581575  0.25718281     0.21000
F337        F  0.37614398  0.57427675  0.21208979    -0.11800
F338        F  0.32297465  0.62562945  0.24587752    -0.14200
F339        F  0.35250102  0.49518914  0.36766220    -0.14200
F340        F  0.29665715  0.54530217  0.39984481    -0.11800
C341        C  0.14303296  0.52499661  0.82120189     0.26200
C342        C  0.13356325  0.53661268  0.76812178    -0.21900
C343        C  0.15677014  0.56575176  0.74424284     0.21100
C344        C  0.19049089  0.58006767  0.77084021     0.26100
C345        C  0.20097170  0.56655243  0.82262774    -0.21900
C346        C  0.17584845  0.54006291  0.84815888     0.21000
F347        F  0.18454539  0.52677478  0.89854324    -0.11800
F348        F  0.12017590  0.49926519  0.84766049    -0.14200
F349        F  0.21431805  0.60476274  0.74426402    -0.14200
F350        F  0.14776493  0.57912777  0.69409004    -0.11800
C351        C  0.20098204  0.52878449  0.34008575     0.26200
C352        C  0.18960899  0.56360190  0.36708829    -0.21900
C353        C  0.15171964  0.56621479  0.38579974     0.21100
C354        C  0.12484383  0.53655346  0.37328398     0.26100
C355        C  0.13496660  0.50469848  0.33960793    -0.21900
C356        C  0.17358513  0.50011862  0.32515070     0.21000
F357        F  0.18392433  0.47012036  0.29178323    -0.11800
F358        F  0.23719152  0.52517390  0.32068077    -0.14200
F359        F  0.08740456  0.54222238  0.38652063    -0.14200
F360        F  0.13942746  0.59972485  0.40991511    -0.11800
C361        C  0.94373965  0.51515388  0.49574758     0.26200
C362        C  0.97592403  0.53191931  0.52341883    -0.21900
C363        C  0.99954781  0.55828277  0.49496421     0.21100
C364        C  0.99384292  0.56374645  0.43909397     0.26100
C365        C  0.96462404  0.54304046  0.41059860    -0.21900
C366        C  0.93818488  0.52085646  0.44007645     0.21000
F367        F  0.90983798  0.50037725  0.41346604    -0.11800
F368        F  0.91872912  0.49118432  0.52149618    -0.14200
F369        F  0.01958941  0.58581174  0.41159644    -0.14200
F370        F  0.02929289  0.57746680  0.52034000    -0.11800
C371        C  0.02907706  0.42712305  0.00551535     0.26200
C372        C  0.04343970  0.45588223  0.04192050    -0.21900
C373        C  0.05094431  0.49378879  0.02239908     0.21100
C374        C  0.04238833  0.50320133  0.96865901     0.26100
C375        C  0.02689007  0.47482857  0.93288041    -0.21900
C376        C  0.02179649  0.43628721  0.95108076     0.21000
F377        F  0.00806780  0.40786667  0.91687778    -0.11800
F378        F  0.02080156  0.39059287  0.02304915    -0.14200
F379        F  0.04902782  0.54023431  0.95166839    -0.14200
F380        F  0.06343243  0.52289016  0.05646007    -0.11800
C381        C  0.55346797  0.33346398  0.77078896     0.26200
C382        C  0.57483925  0.32994255  0.81976135    -0.21900
C383        C  0.59573819  0.36222782  0.83990168     0.21100
C384        C  0.59355836  0.39806150  0.81345379     0.26100
C385        C  0.56887360  0.40266450  0.76776229    -0.21900
C386        C  0.54990567  0.36975355  0.74559777     0.21000
F387        F  0.52734396  0.37290776  0.70046605    -0.11800
F388        F  0.53320964  0.30235686  0.75016267    -0.14200
F389        F  0.61335556  0.42906978  0.83521633    -0.14200
F390        F  0.61585330  0.35984641  0.88739743    -0.11800
C391        C  0.55785617  0.30847906  0.36715269     0.26200
C392        C  0.56436999  0.32008717  0.42197803    -0.21900
C393        C  0.55422697  0.35826569  0.43783355     0.21100
C394        C  0.53609801  0.38322476  0.40124541     0.26100
C395        C  0.52802442  0.37108340  0.34718703    -0.21900
C396        C  0.54012276  0.33382877  0.33015470     0.21000
F397        F  0.53389245  0.32152068  0.27807745    -0.11800
F398        F  0.56724440  0.27210832  0.34945628    -0.14200
F399        F  0.52756544  0.42002225  0.41854805    -0.14200
F400        F  0.56141408  0.37137072  0.48935562    -0.11800
C401        C  0.56629613  0.14422004  0.77241749     0.26200
C402        C  0.53765167  0.11985220  0.79406501    -0.21900
C403        C  0.51933212  0.13136751  0.84200465     0.21100
C404        C  0.52837689  0.16715775  0.86708488     0.26100
C405        C  0.55468856  0.19327535  0.84332039    -0.21900
C406        C  0.57429909  0.18107217  0.79628381     0.21000
F407        F  0.59982924  0.20531665  0.77206119    -0.11800
F408        F  0.58592596  0.13259078  0.72771602    -0.14200
F409        F  0.51079918  0.17659504  0.91444270    -0.14200
F410        F  0.49332454  0.10723146  0.86553224    -0.11800
C411        C  0.50198486  0.19582294  0.42460125     0.26200
C412        C  0.54260090  0.20266493  0.42545065    -0.21900
C413        C  0.56405823  0.18541581  0.38332676     0.21100
C414        C  0.54630537  0.16089476  0.34391874     0.26100
C415        C  0.50646559  0.15215596  0.34566897    -0.21900
C416        C  0.48459124  0.17034013  0.38612999     0.21000
F417        F  0.44595861  0.16383291  0.38814796    -0.11800
F418        F  0.47810826  0.21453698  0.45932718    -0.14200
F419        F  0.56878087  0.14414337  0.30544062    -0.14200
F420        F  0.60257015  0.19207090  0.38004980    -0.11800
C421        C  0.51582070  0.95199479  0.46427660     0.26200
C422        C  0.52057941  0.98832383  0.43930946    -0.21900
C423        C  0.52323417  0.02231329  0.47248024     0.21100
C424        C  0.51969091  0.02029573  0.52899106     0.26100
C425        C  0.51370648  0.98418254  0.55391829    -0.21900
C426        C  0.51288619  0.94989273  0.52113447     0.21000
F427        F  0.50740391  0.91443681  0.54402809    -0.11800
F428        F  0.51112089  0.91897265  0.43353406    -0.14200
F429        F  0.52254375  0.05367741  0.55939681    -0.14200
F430        F  0.52758836  0.05795389  0.44958571    -0.11800
C431        C  0.44856160  0.99691128  0.98006149     0.26200
C432        C  0.48115917  0.01305133  0.95455922    -0.21900
C433        C  0.49681454  0.04830368  0.97609992     0.21100
C434        C  0.48242041  0.06505784  0.02390127     0.26100
C435        C  0.45275615  0.04646765  0.05273935    -0.21900
C436        C  0.43445783  0.01347308  0.02830563     0.21000
F437        F  0.40460619  0.99527039  0.05299744    -0.11800
F438        F  0.43118617  0.96393721  0.95992410    -0.14200
F439        F  0.49935412  0.09835595  0.04374351    -0.14200
F440        F  0.52683933  0.06641245  0.95176867    -0.11800
C441        C  0.31571661  0.92029785  0.79292533     0.26200
C442        C  0.30615688  0.93886848  0.84248889    -0.21900
C443        C  0.33231441  0.96694401  0.86464740     0.21100
C444        C  0.36525208  0.97816366  0.83639220     0.26100
C445        C  0.37422377  0.96034476  0.78652987    -0.21900
C446        C  0.34982658  0.93039206  0.76591603     0.21000
F447        F  0.35925436  0.91070283  0.71972817    -0.11800
F448        F  0.29192192  0.89289191  0.76991944    -0.14200
F449        F  0.38990901  0.00475785  0.85969192    -0.14200
F450        F  0.32651378  0.98322133  0.91448978    -0.11800
C451        C  0.30766067  0.93641959  0.37214814     0.26200
C452        C  0.31131151  0.89677745  0.35610173    -0.21900
C453        C  0.34398356  0.88583403  0.32676581     0.21100
C454        C  0.36924334  0.91401101  0.30689753     0.26100
C455        C  0.36359659  0.95407072  0.31809203    -0.21900
C456        C  0.33389894  0.96483364  0.35359678     0.21000
F457        F  0.32880298  0.00297534  0.36747786    -0.11800
F458        F  0.27723008  0.94818599  0.40218359    -0.14200
F459        F  0.39916675  0.90194644  0.27599023    -0.14200
F460        F  0.34981413  0.84767070  0.31404838    -0.11800
C461        C  0.10810377  0.92780385  0.79356607     0.26200
C462        C  0.11627138  0.94858820  0.74601070    -0.21900
C463        C  0.15465260  0.95314875  0.73018418     0.21100
C464        C  0.18460538  0.93908624  0.76335902     0.26100
C465        C  0.17645449  0.92107985  0.81332680    -0.21900
C466        C  0.13788834  0.91456565  0.82717792     0.21000
F467        F  0.12912989  0.89848799  0.87564377    -0.11800
F468        F  0.07103202  0.92267010  0.80938023    -0.14200
F469        F  0.22166415  0.94666919  0.74955964    -0.14200
F470        F  0.16314059  0.97245510  0.68403398    -0.11800
C471        C  0.17594720  0.97100899  0.30300382     0.26200
C472        C  0.13864487  0.97027291  0.32413249    -0.21900
C473        C  0.13050554  0.94405538  0.36645289     0.21100
C474        C  0.15763254  0.91577441  0.38205003     0.26100
C475        C  0.19357906  0.91394475  0.35666083    -0.21900
C476        C  0.20336748  0.94384741  0.31988673     0.21000
F477        F  0.23823594  0.94411789  0.29544749    -0.11800
F478        F  0.18498721  0.99617549  0.26287730    -0.14200
F479        F  0.14744401  0.88801694  0.41812540    -0.14200
F480        F  0.09476291  0.94276706  0.38826167    -0.11800
C481        C  0.92820633  0.97687171  0.42028311     0.26200
C482        C  0.95376548  0.95340527  0.39072336    -0.21900
C483        C  0.98097156  0.93122039  0.41910256     0.21100
C484        C  0.98571339  0.93578960  0.47523557     0.26100
C485        C  0.96266206  0.96226249  0.50468557    -0.21900
C486        C  0.93246614  0.98124512  0.47678447     0.21000
F487        F  0.90837506  0.00583726  0.50337720    -0.11800
F488        F  0.90212729  0.99922511  0.39368876    -0.14200
F489        F  0.01458905  0.91589853  0.49987101    -0.14200
F490        F  0.00683026  0.90934712  0.39126481    -0.11800
C491        C  0.03374357  0.97676757  0.95097518     0.26200
C492        C  0.02554935  0.00777731  0.91617706    -0.21900
C493        C  0.03073119  0.04642855  0.93606139     0.21100
C494        C  0.04043180  0.05373306  0.99102538     0.26100
C495        C  0.04701353  0.02254596  0.02657021    -0.21900
C496        C  0.04495131  0.98399237  0.00501885     0.21000
F497        F  0.05137369  0.95276170  0.03712145    -0.11800
F498        F  0.03089518  0.93917739  0.93264126    -0.14200
F499        F  0.04257399  0.09124866  0.00967255    -0.14200
F500        F  0.02479542  0.07721794  0.90295654    -0.11800
C501        C  0.90688108  0.31379455  0.75220706     0.26200
C502        C  0.90656913  0.31330777  0.80955553    -0.21900
C503        C  0.92068749  0.34646840  0.83813432     0.21100
C504        C  0.93945287  0.37657543  0.81097654     0.26100
C505        C  0.94348162  0.37523456  0.75432508    -0.21900
C506        C  0.92453817  0.34508506  0.72469784     0.21000
F507        F  0.92498389  0.34482254  0.66959541    -0.11800
F508        F  0.89339004  0.28251399  0.72306173    -0.14200
F509        F  0.95393890  0.40737289  0.84024652    -0.14200
F510        F  0.91987445  0.34767146  0.89329518    -0.11800
C511        C  0.91832257  0.14187166  0.72284610     0.26200
C512        C  0.94052162  0.11322432  0.74886620    -0.21900
C513        C  0.94275721  0.11374476  0.80581387     0.21100
C514        C  0.92551411  0.14340904  0.83613305     0.26100
C515        C  0.90744809  0.17494162  0.81038944    -0.21900
C516        C  0.90244448  0.17302792  0.75334457     0.21000
F517        F  0.88456897  0.20237538  0.72685311    -0.11800
F518        F  0.91378004  0.14082159  0.66800581    -0.14200
F519        F  0.92913105  0.14306823  0.89113394    -0.14200
F520        F  0.96152841  0.08497357  0.83242660    -0.11800
C521        C  0.89790000  0.33454438  0.36070933     0.26200
C522        C  0.90187060  0.29519255  0.34470830    -0.21900
C523        C  0.93480254  0.28474455  0.31429795     0.21100
C524        C  0.96217394  0.31292123  0.29942276     0.26100
C525        C  0.95785927  0.35208988  0.31529041    -0.21900
C526        C  0.92610193  0.36240919  0.34752554     0.21000
F527        F  0.92027767  0.40041993  0.36164988    -0.11800
F528        F  0.86504839  0.34693285  0.38452950    -0.14200
F529        F  0.99197088  0.30221003  0.26736131    -0.14200
F530        F  0.93862742  0.24797668  0.29394237    -0.11800
C531        C  0.92528607  0.11761767  0.29576958     0.26200
C532        C  0.96362260  0.12846146  0.30809906    -0.21900
C533        C  0.97048625  0.15963822  0.34487481     0.21100
C534        C  0.93939775  0.18229514  0.36390228     0.26100
C535        C  0.90120097  0.17409233  0.34573172    -0.21900
C536        C  0.89454286  0.13984236  0.31464148     0.21000
F537        F  0.85807396  0.12908358  0.29984284    -0.11800
F538        F  0.91755054  0.08531781  0.26465419    -0.14200
F539        F  0.94705289  0.21381252  0.39655746    -0.14200
F540        F  0.00710686  0.16908886  0.36045708    -0.11800
C541        C  0.67536599  0.05825233  0.69927077     0.26200
C542        C  0.70214924  0.06622467  0.74114981    -0.21900
C543        C  0.70817413  0.03739466  0.78110665     0.21100
C544        C  0.68405186  0.00445655  0.78340257     0.26100
C545        C  0.65436889  0.99881332  0.74492257    -0.21900
C546        C  0.65184829  0.02468942  0.70084538     0.21000
F547        F  0.62395280  0.01970284  0.66210783    -0.11800
F548        F  0.67027719  0.08413751  0.65862115    -0.14200
F549        F  0.68857379  0.97893114  0.82465564    -0.14200
F550        F  0.73680541  0.04140498  0.81896425    -0.11800
C551        C  0.86432528  0.03847064  0.78194500     0.26200
C552        C  0.85774727  0.00706577  0.74548278    -0.21900
C553        C  0.82881146  0.01076821  0.70540117     0.21100
C554        C  0.80653605  0.04470368  0.70245117     0.26100
C555        C  0.81284217  0.07640982  0.73931324    -0.21900
C556        C  0.84281684  0.07281648  0.77828347     0.21000
F557        F  0.85205304  0.10278120  0.81270079    -0.11800
F558        F  0.89343316  0.03701885  0.81919289    -0.14200
F559        F  0.77864570  0.04602674  0.66335530    -0.14200
F560        F  0.82233732  0.98152405  0.66836481    -0.11800
C561        C  0.65036547  0.09732026  0.12074315     0.26200
C562        C  0.68519195  0.08760264  0.14605024    -0.21900
C563        C  0.68620368  0.05289029  0.17715843     0.21100
C564        C  0.65224845  0.03190669  0.18880497     0.26100
C565        C  0.61654743  0.04467379  0.16895472    -0.21900
C566        C  0.61659244  0.07588778  0.13137510     0.21000
F567        F  0.58316394  0.08767100  0.10769576    -0.11800
F568        F  0.64824420  0.12960452  0.08948278    -0.14200
F569        F  0.65403758  0.00142700  0.22338495    -0.14200
F570        F  0.71972633  0.04105769  0.20037553    -0.11800
C571        C  0.84828889  0.11438287  0.11825673     0.26200
C572        C  0.81293866  0.09489325  0.12208327    -0.21900
C573        C  0.81268795  0.05391443  0.12771380     0.21100
C574        C  0.84724295  0.03353387  0.13610794     0.26100
C575        C  0.88276754  0.05375713  0.13794738    -0.21900
C576        C  0.88281006  0.09422864  0.12556910     0.21000
F577        F  0.91603770  0.11551306  0.12493632    -0.11800
F578        F  0.84928557  0.15382656  0.11271512    -0.14200
F579        F  0.84558095  0.99461239  0.14589133    -0.14200
F580        F  0.77871299  0.03415350  0.13040896    -0.11800
C581        C  0.46343822  0.65519093  0.67862868     0.26200
C582        C  0.44528040  0.67890225  0.71749201    -0.21900
C583        C  0.46732916  0.69207443  0.76331958     0.21100
C584        C  0.50536391  0.68027841  0.77113611     0.26100
C585        C  0.52321413  0.65578289  0.73319624    -0.21900
C586        C  0.50206001  0.64379735  0.68624874     0.21000
F587        F  0.51803950  0.61950618  0.64899134    -0.11800
F588        F  0.44348185  0.64221280  0.63402250    -0.14200
F589        F  0.52484634  0.69282128  0.81641264    -0.14200
F590        F  0.45237552  0.71665633  0.80119599    -0.11800
C591        C  0.45351290  0.78531206  0.69667607     0.26200
C592        C  0.41908550  0.78409153  0.72710113    -0.21900
C593        C  0.41507591  0.81139392  0.77005342     0.21100
C594        C  0.44513411  0.83724342  0.78419953     0.26100
C595        C  0.47943531  0.83828350  0.75393730    -0.21900
C596        C  0.48293787  0.81231836  0.70959199     0.21000
F597        F  0.51500532  0.81296078  0.67852591    -0.11800
F598        F  0.45944131  0.76001877  0.65464928    -0.14200
F599        F  0.43959765  0.86263798  0.82626021    -0.14200
F600        F  0.38176782  0.81376491  0.79822798    -0.11800
C601        C  0.43333444  0.69185436  0.20998533     0.26200
C602        C  0.40610505  0.69398293  0.16665493    -0.21900
C603        C  0.40732056  0.66518212  0.12546492     0.21100
C604        C  0.43263217  0.63344766  0.12983910     0.26100
C605        C  0.45754481  0.62983209  0.17547424    -0.21900
C606        C  0.45855178  0.66028336  0.21425034     0.21000
F607        F  0.48199085  0.65826943  0.25868203    -0.11800
F608        F  0.43539593  0.72006630  0.24933370    -0.14200
F609        F  0.43164366  0.60533520  0.09027685    -0.14200
F610        F  0.38270464  0.66649239  0.08229897    -0.11800
C611        C  0.44071688  0.81622875  0.16622574     0.26200
C612        C  0.40210806  0.82028215  0.14796092    -0.21900
C613        C  0.38882082  0.85790127  0.13716116     0.21100
C614        C  0.41265676  0.89078949  0.14629533     0.26100
C615        C  0.45053757  0.88726181  0.16811943    -0.21900
C616        C  0.46448191  0.84934319  0.17690907     0.21000
F617        F  0.50070726  0.84429148  0.19687656    -0.11800
F618        F  0.45465263  0.78023569  0.17713005    -0.14200
F619        F  0.39720550  0.92653028  0.13765563    -0.14200
F620        F  0.35166561  0.86306533  0.12100696    -0.11800
C621        C  0.84734710  0.41448498  0.79714693     0.26200
C622        C  0.82885691  0.40245732  0.74770905    -0.21900
C623        C  0.83520079  0.42555101  0.70172850     0.21100
C624        C  0.85645789  0.46052753  0.70554893     0.26100
C625        C  0.87315748  0.47350403  0.75540946    -0.21900
C626        C  0.86892867  0.44939252  0.80076348     0.21000
F627        F  0.88648316  0.45893331  0.84881576    -0.11800
F628        F  0.84499776  0.39307878  0.84283342    -0.14200
F629        F  0.86107563  0.48137242  0.65954710    -0.14200
F630        F  0.82034107  0.41459797  0.65246203    -0.11800
C631        C  0.71340374  0.44153331  0.69552991     0.26200
C632        C  0.72094045  0.42143211  0.74415309    -0.21900
C633        C  0.71400433  0.44172919  0.79380398     0.21100
C634        C  0.69705600  0.47856894  0.79443832     0.26100
C635        C  0.68608329  0.49682705  0.74592216    -0.21900
C636        C  0.69589244  0.47849521  0.69632645     0.21000
F637        F  0.68706012  0.49540745  0.64827436    -0.11800
F638        F  0.72236214  0.42525685  0.64676123    -0.14200
F639        F  0.69010856  0.49571841  0.84346186    -0.14200
F640        F  0.72404661  0.42699362  0.84274530    -0.11800
C641        C  0.84740866  0.49419725  0.13393688     0.26200
C642        C  0.87431514  0.46458718  0.14370713    -0.21900
C643        C  0.86575988  0.42646261  0.12269854     0.21100
C644        C  0.83275760  0.41896343  0.09047345     0.26100
C645        C  0.80705520  0.44898902  0.07845399    -0.21900
C646        C  0.81416277  0.48647490  0.10224351     0.21000
F647        F  0.78898412  0.51611424  0.09452865    -0.11800
F648        F  0.85357189  0.53101059  0.15377132    -0.14200
F649        F  0.82701834  0.38257479  0.06903775    -0.14200
F650        F  0.88986578  0.39613982  0.13184503    -0.11800
C651        C  0.68578609  0.44449730  0.13154103     0.26200
C652        C  0.68152654  0.45325755  0.07589440    -0.21900
C653        C  0.65028560  0.47740608  0.06073936     0.21100
C654        C  0.62515699  0.49297961  0.09970500     0.26100
C655        C  0.62937048  0.48378210  0.15484529    -0.21900
C656        C  0.65959509  0.45880788  0.17004622     0.21000
F657        F  0.66374584  0.44809833  0.22265702    -0.11800
F658        F  0.71579117  0.42276845  0.14940362    -0.14200
F659        F  0.59524086  0.51531547  0.08293027    -0.14200
F660        F  0.64375962  0.48604412  0.00786536    -0.11800
C661        C  0.03865697  0.82892649  0.77679325     0.26200
C662        C  0.02611101  0.84543479  0.72788985    -0.21900
C663        C  0.04762143  0.83751264  0.68044832     0.21100
C664        C  0.08181627  0.81588766  0.68278757     0.26100
C665        C  0.09568655  0.80143154  0.73229743    -0.21900
C666        C  0.07262084  0.80710606  0.77907448     0.21000
F667        F  0.08208094  0.79113017  0.82748180    -0.11800
F668        F  0.01835221  0.83433734  0.82307192    -0.14200
F669        F  0.10199486  0.81007234  0.63653512    -0.14200
F670        F  0.03677641  0.85225352  0.63175020    -0.11800
C671        C  0.09643138  0.66365498  0.69772829     0.26200
C672        C  0.10638035  0.68738555  0.74262823    -0.21900
C673        C  0.08259414  0.68584419  0.78922833     0.21100
C674        C  0.05057216  0.66069910  0.79077730     0.26100
C675        C  0.04029373  0.63750379  0.74542030    -0.21900
C676        C  0.06370036  0.63942757  0.69866633     0.21000
F677        F  0.05583694  0.61689355  0.65393676    -0.11800
F678        F  0.11875382  0.66352257  0.65284115    -0.14200
F679        F  0.02923936  0.65964365  0.83660852    -0.14200
F680        F  0.08911645  0.70948709  0.83317854    -0.11800
C681        C  0.03127286  0.83946332  0.04639843     0.26200
C682        C  0.05345134  0.80963162  0.07010521    -0.21900
C683        C  0.06154925  0.81209943  0.12631773     0.21100
C684        C  0.04800813  0.84358490  0.15763295     0.26100
C685        C  0.02461674  0.87233040  0.13416142    -0.21900
C686        C  0.01620300  0.86982441  0.07832713     0.21000
F687        F  0.99487653  0.89789575  0.05413536    -0.11800
F688        F  0.02423732  0.83930579  0.99200915    -0.14200
F689        F  0.05771657  0.84605956  0.21119517    -0.14200
F690        F  0.08138498  0.78345727  0.15159513    -0.11800
C691        C  0.03524788  0.68182512  0.12216876     0.26200
C692        C  0.06640321  0.68044308  0.08573327    -0.21900
C693        C  0.08860096  0.64657389  0.08322378     0.21100
C694        C  0.07895193  0.61404126  0.11462473     0.26100
C695        C  0.04582002  0.61414113  0.14800110    -0.21900
C696        C  0.02479312  0.64897053  0.15236940     0.21000
F697        F  0.99372855  0.65117700  0.18523062    -0.11800
F698        F  0.01342026  0.71449061  0.12606140    -0.14200
F699        F  0.10128389  0.58181263  0.11015234    -0.14200
F700        F  0.11845167  0.64422330  0.04819372    -0.11800
C701        C  0.78091090  0.17817785  0.59369126     0.26200
C702        C  0.74920704  0.20440509  0.59006171    -0.21900
C703        C  0.71966368  0.19873278  0.62879744     0.21100
C704        C  0.72010412  0.16768977  0.66554735     0.26100
C705        C  0.75087793  0.14072526  0.66710250    -0.21900
C706        C  0.78105871  0.14671243  0.63024433     0.21000
F707        F  0.81183807  0.12251252  0.63062291    -0.11800
F708        F  0.81359710  0.18378728  0.56520239    -0.14200
F709        F  0.69029762  0.16523937  0.70058557    -0.14200
F710        F  0.68917200  0.22319099  0.63091889    -0.11800
C711        C  0.72041866  0.30144960  0.60745066     0.26200
C712        C  0.75132302  0.27692081  0.59100448    -0.21900
C713        C  0.78724710  0.28429771  0.61776122     0.21100
C714        C  0.79358834  0.31744159  0.65133739     0.26100
C715        C  0.76296787  0.34215397  0.66704890    -0.21900
C716        C  0.72608652  0.33279867  0.64467140     0.21000
F717        F  0.69445836  0.35301226  0.66007936    -0.11800
F718        F  0.68347745  0.29394481  0.59165484    -0.14200
F719        F  0.83020960  0.32468954  0.66896957    -0.14200
F720        F  0.81752584  0.26020542  0.60923795    -0.11800
C721        C  0.68057778  0.20930900  0.51368219     0.26200
C722        C  0.70725687  0.24120668  0.51694139    -0.21900
C723        C  0.69683372  0.27457757  0.48653466     0.21100
C724        C  0.65963065  0.27851887  0.46304171     0.26100
C725        C  0.63114488  0.24879691  0.46718031    -0.21900
C726        C  0.64331333  0.21333743  0.49085674     0.21000
F727        F  0.61913463  0.18199753  0.49300115    -0.11800
F728        F  0.69020337  0.17322946  0.53111016    -0.14200
F729        F  0.65120282  0.31234134  0.43755428    -0.14200
F730        F  0.72194159  0.30501373  0.48259957    -0.11800
C731        C  0.81398603  0.20412776  0.43290080     0.26200
C732        C  0.84157016  0.23484949  0.42677260    -0.21900
C733        C  0.83709135  0.26786869  0.46090239     0.21100
C734        C  0.80545442  0.27177437  0.49591171     0.26100
C735        C  0.77946041  0.24012533  0.50544386    -0.21900
C736        C  0.78358365  0.20710104  0.47044916     0.21000
F737        F  0.75862988  0.17647143  0.47373744    -0.11800
F738        F  0.81580942  0.17066706  0.40274529    -0.14200
F739        F  0.79967671  0.30794347  0.51737441    -0.14200
F740        F  0.86348965  0.29721090  0.46015479    -0.11800
C741        C  0.73715048  0.14817318  0.01759686     0.26200
C742        C  0.74335982  0.15369473  0.07360605    -0.21900
C743        C  0.75028528  0.19253655  0.09244412     0.21100
C744        C  0.75015682  0.22464448  0.05700586     0.26100
C745        C  0.74152971  0.21984354  0.00072290    -0.21900
C746        C  0.73649058  0.18029843  0.98191749     0.21000
F747        F  0.72980907  0.17261890  0.92837168    -0.11800
F748        F  0.73194877  0.11142621  0.99712681    -0.14200
F749        F  0.76081038  0.25985576  0.07848734    -0.14200
F750        F  0.75838663  0.19959002  0.14576936    -0.11800
C751        C  0.71667037  0.34989513  0.04722441     0.26200
C752        C  0.74225982  0.37849824  0.02716593    -0.21900
C753        C  0.76466584  0.36696782  0.98213990     0.21100
C754        C  0.76354503  0.32855430  0.96082811     0.26100
C755        C  0.74054327  0.29819568  0.98358033    -0.21900
C756        C  0.71531189  0.31105724  0.02542435     0.21000
F757        F  0.68919573  0.28583940  0.04620653    -0.11800
F758        F  0.69224102  0.35953010  0.08770948    -0.14200
F759        F  0.78374554  0.32274185  0.91486795    -0.14200
F760        F  0.78680908  0.39342822  0.95589987    -0.11800
C761        C  0.69161742  0.27456106  0.87979961     0.26200
C762        C  0.69847608  0.25258376  0.92743112    -0.21900
C763        C  0.66524683  0.23419878  0.94978319     0.21100
C764        C  0.62883738  0.23580150  0.92436055     0.26100
C765        C  0.62290790  0.25628343  0.87574750    -0.21900
C766        C  0.65506261  0.27545235  0.85370725     0.21000
F767        F  0.65116491  0.29556952  0.80694067    -0.11800
F768        F  0.72059868  0.29551804  0.85802246    -0.14200
F769        F  0.59856738  0.21928183  0.95020525    -0.14200
F770        F  0.66620142  0.21701805  0.99906264    -0.11800
C771        C  0.77613376  0.23495269  0.86629184     0.26200
C772        C  0.77578877  0.24719946  0.92211224    -0.21900
C773        C  0.81259976  0.25291676  0.94707257     0.21100
C774        C  0.84675883  0.25192222  0.91737106     0.26100
C775        C  0.84667432  0.24416131  0.86094557    -0.21900
C776        C  0.81094943  0.23431813  0.83616413     0.21000
F777        F  0.80970598  0.22357930  0.78288333    -0.11800
F778        F  0.74353942  0.22190869  0.84074890    -0.14200
F779        F  0.88047400  0.25888023  0.94450068    -0.14200
F780        F  0.81566844  0.26214608  0.00073824    -0.11800
C781        C  0.33217554  0.75651054  0.56362538     0.26200
C782        C  0.29981370  0.73090843  0.56748846    -0.21900
C783        C  0.30457911  0.69839357  0.60231314     0.21100
C784        C  0.33747874  0.69377906  0.63497132     0.26100
C785        C  0.36720614  0.72227547  0.63643383    -0.21900
C786        C  0.36441364  0.75301921  0.59897294     0.21000
F787        F  0.39281950  0.78047104  0.59732343    -0.11800
F788        F  0.33368451  0.78469082  0.52566150    -0.14200
F789        F  0.33853163  0.66216070  0.66756890    -0.14200
F790        F  0.27587389  0.67159814  0.60765084    -0.11800
C791        C  0.23409014  0.75128659  0.63507552     0.26200
C792        C  0.22646363  0.73928442  0.58022718    -0.21900
C793        C  0.18672548  0.73578041  0.56547146     0.21100
C794        C  0.15720581  0.73804922  0.60475644     0.26100
C795        C  0.16583328  0.74617553  0.65980738    -0.21900
C796        C  0.20487706  0.75383768  0.67358511     0.21000
F797        F  0.21562268  0.76436036  0.72484911    -0.11800
F798        F  0.26967544  0.76297554  0.65256816    -0.14200
F799        F  0.11999660  0.73218457  0.58885418    -0.14200
F800        F  0.17622364  0.72894531  0.51292257    -0.11800
C801        C  0.28659910  0.69242773  0.45914487     0.26200
C802        C  0.25861695  0.69654626  0.50050712    -0.21900
C803        C  0.23289482  0.66428775  0.50646644     0.21100
C804        C  0.23171933  0.63304388  0.46820482     0.26100
C805        C  0.25626992  0.63211764  0.42281141    -0.21900
C806        C  0.28531575  0.66147177  0.42110140     0.21000
F807        F  0.31199866  0.66182690  0.38126433    -0.11800
F808        F  0.31436124  0.72021510  0.45314158    -0.14200
F809        F  0.20620069  0.60342761  0.47575556    -0.14200
F810        F  0.20966712  0.66140236  0.55007460    -0.11800
C811        C  0.26110096  0.81143757  0.51883946     0.26200
C812        C  0.25478664  0.77237107  0.49926016    -0.21900
C813        C  0.23893676  0.76923486  0.44563372     0.21100
C814        C  0.23578095  0.80149118  0.41169542     0.26100
C815        C  0.24629956  0.83968592  0.42936886    -0.21900
C816        C  0.25808394  0.84420549  0.48410029     0.21000
F817        F  0.26677735  0.88044988  0.50406083    -0.11800
F818        F  0.27119644  0.81811135  0.57158936    -0.14200
F819        F  0.22221609  0.79447144  0.36059847    -0.14200
F820        F  0.22400786  0.73523785  0.42513286    -0.11800
C821        C  0.31395415  0.72195412  0.08427009     0.26200
C822        C  0.34579791  0.74838622  0.08173461    -0.21900
C823        C  0.34676174  0.77309572  0.03668632     0.21100
C824        C  0.31624794  0.77380451  0.99813432     0.26100
C825        C  0.28217709  0.75029005  0.00355130    -0.21900
C826        C  0.28392721  0.72197359  0.04495984     0.21000
F827        F  0.25518677  0.69511310  0.04958919    -0.11800
F828        F  0.31062805  0.69650198  0.12574470    -0.14200
F829        F  0.32157315  0.79684442  0.95446635    -0.14200
F830        F  0.37768570  0.79702082  0.02988939    -0.11800
C831        C  0.19779264  0.75783657  0.04812878     0.26200
C832        C  0.20506614  0.75399272  0.99126686    -0.21900
C833        C  0.17176755  0.75303151  0.95712331     0.21100
C834        C  0.13432463  0.75102463  0.97755903     0.26100
C835        C  0.12754681  0.75075384  0.03375980    -0.21900
C836        C  0.15974996  0.75512683  0.06879311     0.21000
F837        F  0.15444340  0.75726302  0.12322926    -0.11800
F838        F  0.22659258  0.76612521  0.08424717    -0.14200
F839        F  0.10435765  0.74860672  0.94166411    -0.14200
F840        F  0.17545737  0.75238930  0.90265769    -0.11800
C841        C  0.28303658  0.67208746  0.85869756     0.26200
C842        C  0.25877086  0.63926999  0.86686962    -0.21900
C843        C  0.22969787  0.64398126  0.90607222     0.21100
C844        C  0.22481858  0.67935313  0.93514432     0.26100
C845        C  0.24898351  0.71282071  0.92716229    -0.21900
C846        C  0.27937044  0.70714304  0.88968859     0.21000
F847        F  0.30585579  0.73593944  0.88233167    -0.11800
F848        F  0.31066513  0.67064837  0.82044361    -0.14200
F849        F  0.19801064  0.67850202  0.97474127    -0.14200
F850        F  0.20714404  0.61326936  0.92014896    -0.11800
C851        C  0.24344550  0.79496983  0.87252431     0.26200
C852        C  0.24692134  0.79155126  0.93018283    -0.21900
C853        C  0.24758412  0.82735690  0.96035256     0.21100
C854        C  0.24721309  0.86381589  0.93506744     0.26100
C855        C  0.24504714  0.86688095  0.87814850    -0.21900
C856        C  0.24252001  0.83198875  0.84734967     0.21000
F857        F  0.23777530  0.83371446  0.79266937    -0.11800
F858        F  0.23798115  0.76313354  0.83989241    -0.14200
F859        F  0.24752299  0.89657117  0.96690322    -0.14200
F860        F  0.24875547  0.82722072  0.01548389    -0.11800
loop_ 
_geom_bond_atom_site_label_1 
_geom_bond_atom_site_label_2 
_geom_bond_distance 
_geom_bond_site_symmetry_2 
_ccdc_geom_bond_type 
C1          C825   1.592   1_556  S
C1          C832   1.594       .  S
C1          C845   1.596       .  S
C1          C852   1.588       .  S
C2          C782   1.584       .  S
C2          C792   1.586       .  S
C2          C802   1.585       .  S
C2          C812   1.593       .  S
C3          C745   1.593   1_556  S
C3          C755   1.608       .  S
C3          C762   1.587       .  S
C3          C772   1.591       .  S
C4          C702   1.590       .  S
C4          C712   1.588       .  S
C4          C722   1.592       .  S
C4          C735   1.593       .  S
N5            C9   1.367       .  A
N5            C6   1.368       .  A
N5          C835   1.464       .  S
C6            C7   1.384       .  A
C6          C682   1.493       .  S
C7            C8   1.362       .  A
C7           H10   1.082   1_554  S
C8            C9   1.383       .  A
C8           H11   1.084       .  S
C9          C692   1.489       .  S
N12          C16   1.362       .  A
N12          C13   1.365       .  A
N12         C795   1.469       .  S
C13          C14   1.387       .  A
C13         C665   1.506       .  S
C14          C15   1.372       .  A
C14          H17   1.081       .  S
C15          C16   1.382       .  A
C15          H18   1.078       .  S
C16         C672   1.498       .  S
N19          C23   1.371       .  A
N19          C20   1.372       .  A
N19         C752   1.480       .  S
C20          C21   1.391       .  A
C20         C652   1.513       .  S
C21          C22   1.361       .  A
C21          H24   1.079   1_554  S
C22          C23   1.379       .  A
C22          H25   1.081   1_554  S
C23         C645   1.500       .  S
N26          C30   1.361       .  A
N26          C27   1.365       .  A
N26         C715   1.481       .  S
C27          C28   1.385       .  A
C27         C622   1.514       .  S
C28          C29   1.370       .  A
C28          H31   1.072       .  S
C29          C30   1.383       .  A
C29          H32   1.078       .  S
C30         C632   1.513       .  S
N33          C37   1.367       .  A
N33          C34   1.368       .  A
N33         C822   1.476       .  S
C34          C35   1.380       .  A
C34         C612   1.498       .  S
C35          C36   1.364       .  A
C35          H38   1.078       .  S
C36          C37   1.383       .  A
C36          H39   1.080       .  S
C37         C602   1.502       .  S
N40          C44   1.364       .  A
N40          C41   1.357       .  A
N40         C785   1.468       .  S
C41          C42   1.392       .  A
C41         C592   1.503       .  S
C42          C43   1.372       .  A
C42          H45   1.081       .  S
C43          C44   1.386       .  A
C43          H46   1.081       .  S
C44         C582   1.504       .  S
N47          C51   1.364       .  A
N47          C48   1.373       .  A
N47         C742   1.470       .  S
C48          C49   1.386       .  A
C48         C562   1.504       .  S
C49          C50   1.360       .  A
C49          H52   1.083       .  S
C50          C51   1.378       .  A
C50          H53   1.083       .  S
C51         C572   1.480       .  S
N54          C58   1.359       .  A
N54          C55   1.362       .  A
N54         C705   1.473       .  S
C55          C56   1.394       .  A
C55         C555   1.510       .  S
C56          C57   1.368       .  A
C56          H59   1.078       .  S
C57          C58   1.382       .  A
C57          H60   1.084       .  S
C58         C542   1.495       .  S
N61          C65   1.364       .  A
N61          C62   1.372       .  A
N61         C732   1.481       .  S
C62          C63   1.383       .  A
C62         C522   1.501       .  S
C63          C64   1.365       .  A
C63          H66   1.082       .  S
C64          C65   1.386       .  A
C64          H67   1.081       .  S
C65         C535   1.500       .  S
N68          C72   1.372       .  A
N68          C69   1.375       .  A
N68         C775   1.467       .  S
C69          C70   1.379       .  A
C69         C502   1.489       .  S
C70          C71   1.349       .  A
C70          H73   1.083       .  S
C71          C72   1.384       .  A
C71          H74   1.082       .  S
C72         C515   1.492       .  S
Zn75         O79   2.000   1_665  S
Zn75         O80   2.083       .  S
Zn75         O84   2.088       .  S
Zn75         O91   2.100   1_565  S
Zn76         O79   1.924       .  S
Zn76         O81   2.034       .  S
Zn76         O83   1.917   1_445  S
Zn76         O87   2.009       .  S
Zn77         O79   1.920   1_565  S
Zn77         O82   1.972       .  S
Zn77         O85   2.033       .  S
Zn77         O88   2.010   1_565  S
Zn78         O79   1.937       .  S
Zn78         O86   2.048       .  S
Zn78         O89   2.046   1_455  S
Zn78         O90   1.955   1_455  S
O80          C92   1.280       .  A
O81          C93   1.274   1_545  A
O82          C94   1.267       .  A
O83          C92   1.262       .  A
O84          C94   1.283   1_655  A
O85          C93   1.277       .  A
O86          C95   1.279       .  A
O87          C96   1.272   1_455  A
O88          C95   1.275       .  A
O89          C96   1.281       .  A
O90          C97   1.264       .  A
O91          C97   1.282       .  A
C92         C482   1.462       .  S
C93         C472   1.488       .  S
C94         C685   1.477       .  S
C95         C495   1.495       .  S
C96         C532   1.482       .  S
C97         C575   1.500       .  S
Zn98        O102   1.977       .  S
Zn98        O103   2.078       .  S
Zn98        O107   2.075       .  S
Zn98        O114   2.051       .  S
Zn99        O102   1.902   1_455  S
Zn99        O104   2.006   1_455  S
Zn99        O106   1.968   1_455  S
Zn99        O110   1.980       .  S
Zn100       O102   1.918       .  S
Zn100       O105   1.966       .  S
Zn100       O108   2.018       .  S
Zn100       O111   2.016   1_565  S
Zn101       O102   1.923   1_445  S
Zn101       O109   2.063   1_455  S
Zn101       O112   2.067       .  S
Zn101       O113   2.010       .  S
O103        C115   1.280       .  A
O104        C116   1.274       .  A
O105        C117   1.263       .  A
O106        C115   1.265       .  A
O107        C117   1.280       .  A
O108        C116   1.274       .  A
O109        C118   1.287       .  A
O110        C119   1.272       .  A
O111        C118   1.276       .  A
O112        C119   1.286   1_545  A
O113        C120   1.268   1_545  A
O114        C120   1.276   1_655  A
C115        C662   1.497   1_655  S
C116        C485   1.491       .  S
C117        C552   1.485   1_565  S
C118        C512   1.482       .  S
C119        C462   1.476       .  S
C120        C492   1.488   1_565  S
N121        C125   1.372       .  A
N121        C122   1.364       .  A
N121        C815   1.472       .  S
C122        C123   1.388       .  A
C122        C452   1.493       .  S
C123        C124   1.363       .  A
C123        H126   1.075       .  S
C124        C125   1.386       .  A
C124        H127   1.095       .  S
C125        C475   1.499       .  S
N128        C132   1.369       .  A
N128        C129   1.365       .  A
N128        C855   1.461       .  S
C129        C130   1.380       .  A
C129        C465   1.481       .  S
C130        C131   1.359       .  A
C130        H133   1.083       .  S
C131        C132   1.386       .  A
C131        H134   1.078       .  S
C132        C442   1.499       .  S
Zn135       O139   1.911   1_565  S
Zn135       O140   2.003       .  S
Zn135       O144   1.974       .  S
Zn135       O151   1.998   1_565  S
Zn136       O139   1.941       .  S
Zn136       O141   1.936       .  S
Zn136       O143   2.052       .  S
Zn136       O147   2.051       .  S
Zn137       O139   2.000   1_565  S
Zn137       O142   2.152       .  S
Zn137       O145   2.124       .  S
Zn137       O148   2.160       .  S
Zn138       O139   1.904       .  S
Zn138       O146   1.934       .  S
Zn138       O149   2.022       .  S
Zn138       O150   2.014       .  S
O140        C152   1.274       .  A
O141        C153   1.264   1_545  A
O142        C154   1.287       .  A
O143        C152   1.278   1_545  A
O144        C154   1.264       .  A
O145        C153   1.287       .  A
O146        C155   1.264       .  A
O147        C156   1.280       .  A
O148        C155   1.292   1_565  A
O149        C156   1.275       .  A
O150        C157   1.275       .  A
O151        C157   1.273       .  A
C152        C455   1.487       .  S
C153        C422   1.483       .  S
C154        C615   1.507       .  S
C155        C565   1.503       .  S
C156        C415   1.495       .  S
C157        C435   1.493       .  S
Zn158       O162   1.931   1_545  S
Zn158       O163   2.093       .  S
Zn158       O167   2.078       .  S
Zn158       O174   2.106   1_545  S
Zn159       O162   1.920       .  S
Zn159       O164   2.035       .  S
Zn159       O166   1.991       .  S
Zn159       O170   2.046       .  S
Zn160       O162   1.912   1_545  S
Zn160       O165   1.971       .  S
Zn160       O168   2.006   1_545  S
Zn160       O171   2.039       .  S
Zn161       O162   1.900       .  S
Zn161       O169   2.019       .  S
Zn161       O172   1.975       .  S
Zn161       O173   1.964       .  S
O163        C175   1.286   1_545  A
O164        C176   1.277       .  A
O165        C177   1.267       .  A
O166        C175   1.271       .  A
O167        C177   1.283       .  A
O168        C176   1.276       .  A
O169        C178   1.273       .  A
O170        C179   1.278       .  A
O171        C178   1.277   1_545  A
O172        C179   1.271       .  A
O173        C180   1.263       .  A
O174        C180   1.285       .  A
C175        C425   1.487       .  S
C176        C545   1.481       .  S
C177        C402   1.469       .  S
C178        C432   1.497   1_565  S
C179        C595   1.487       .  S
C180        C445   1.477       .  S
N181        C185   1.368       .  A
N181        C182   1.364       .  A
N181        C725   1.482       .  S
C182        C183   1.386       .  A
C182        C392   1.500       .  S
C183        C184   1.366       .  A
C183        H186   1.085       .  S
C184        C185   1.386       .  A
C184        H187   1.078       .  S
C185        C412   1.516       .  S
N188        C192   1.367       .  A
N188        C189   1.366       .  A
N188        C765   1.465       .  S
C189        C190   1.381       .  A
C189        C382   1.479       .  S
C190        C191   1.357       .  A
C190        H193   1.084       .  S
C191        C192   1.382       .  A
C191        H194   1.083       .  S
C192        C405   1.488       .  S
Zn195       O199   1.942   1_655  S
Zn195       O200   2.045       .  S
Zn195       O204   2.014   1_655  S
Zn195       O211   1.965       .  S
Zn196       O199   1.926       .  S
Zn196       O201   2.015       .  S
Zn196       O203   2.016   1_455  S
Zn196       O207   1.926   1_455  S
Zn197       O199   1.939       .  S
Zn197       O202   1.991       .  S
Zn197       O205   2.007       .  S
Zn197       O208   1.986       .  S
Zn198       O199   2.004   1_655  S
Zn198       O206   2.101       .  S
Zn198       O209   2.090       .  S
Zn198       O210   2.113       .  S
O200        C212   1.277       .  A
O201        C213   1.273       .  A
O202        C214   1.272       .  A
O203        C212   1.272       .  A
O204        C214   1.274       .  A
O205        C213   1.273       .  A
O206        C215   1.284   1_655  A
O207        C216   1.263       .  A
O208        C215   1.268       .  A
O209        C216   1.281       .  A
O210        C217   1.286       .  A
O211        C217   1.266       .  A
C212        C525   1.483       .  S
C213        C355   1.473       .  S
C214        C372   1.479       .  S
C215        C695   1.501       .  S
C216        C365   1.466       .  S
C217        C642   1.504       .  S
Zn218       O222   1.907   1_455  S
Zn218       O223   1.950   1_455  S
Zn218       O227   2.023       .  S
Zn218       O234   2.016       .  S
Zn219       O222   2.003       .  S
Zn219       O224   2.088       .  S
Zn219       O226   2.089       .  S
Zn219       O230   2.036       .  S
Zn220       O222   1.913       .  S
Zn220       O225   2.008       .  S
Zn220       O228   1.951       .  S
Zn220       O231   2.012       .  S
Zn221       O222   1.903   1_455  S
Zn221       O229   2.074   1_455  S
Zn221       O232   1.987       .  S
Zn221       O233   2.086       .  S
O223        C235   1.259   1_655  A
O224        C236   1.277       .  A
O225        C237   1.273       .  A
O226        C235   1.279   1_655  A
O227        C237   1.275   1_455  A
O228        C236   1.261       .  A
O229        C238   1.289       .  A
O230        C239   1.274   1_655  A
O231        C238   1.274       .  A
O232        C239   1.265       .  A
O233        C240   1.290       .  A
O234        C240   1.276       .  A
C235        C675   1.491       .  S
C236        C625   1.500       .  S
C237        C362   1.493       .  S
C238        C505   1.485       .  S
C239        C375   1.475       .  S
C240        C342   1.498       .  S
N241        C245   1.364       .  A
N241        C242   1.364       .  A
N241        C805   1.473       .  S
C242        C243   1.384       .  A
C242        C332   1.495       .  S
C243        C244   1.363       .  A
C243        H246   1.080       .  S
C244        C245   1.384       .  A
C244        H247   1.083       .  S
C245        C352   1.488       .  S
N248        C252   1.376       .  A
N248        C249   1.380       .  A
N248        C842   1.477       .  S
C249        C250   1.380       .  A
C249        C345   1.496       .  S
C250        C251   1.352       .  A
C250        H253   1.084       .  S
C251        C252   1.378       .  A
C251        H254   1.086       .  S
C252        C322   1.483       .  S
Zn255       O259   1.935       .  S
Zn255       O260   2.044       .  S
Zn255       O264   2.043       .  S
Zn255       O271   1.982       .  S
Zn256       O259   1.927       .  S
Zn256       O261   2.013       .  S
Zn256       O263   1.985       .  S
Zn256       O267   1.974       .  S
Zn257       O259   1.899       .  S
Zn257       O262   2.001       .  S
Zn257       O265   1.999       .  S
Zn257       O268   1.927       .  S
Zn258       O259   1.967       .  S
Zn258       O266   2.112       .  S
Zn258       O269   2.091       .  S
Zn258       O270   2.114       .  S
O260        C272   1.279       .  A
O261        C273   1.275       .  A
O262        C274   1.275       .  A
O263        C272   1.273       .  A
O264        C274   1.278       .  A
O265        C273   1.270       .  A
O266        C275   1.286       .  A
O267        C276   1.266       .  A
O268        C275   1.263       .  A
O269        C276   1.283       .  A
O270        C277   1.284       .  A
O271        C277   1.265       .  A
C272        C312   1.493       .  S
C273        C335   1.481       .  S
C274        C395   1.488       .  S
C275        C302   1.481       .  S
C276        C605   1.493       .  S
C277        C655   1.491       .  S
Zn278       O282   1.920       .  S
Zn278       O283   2.084       .  S
Zn278       O287   2.134       .  S
Zn278       O294   2.128       .  S
Zn279       O282   1.970       .  S
Zn279       O284   2.037       .  S
Zn279       O286   1.979       .  S
Zn279       O290   2.062       .  S
Zn280       O282   1.907       .  S
Zn280       O285   1.958       .  S
Zn280       O288   1.978       .  S
Zn280       O291   2.035       .  S
Zn281       O282   1.884       .  S
Zn281       O289   1.997       .  S
Zn281       O292   1.964       .  S
Zn281       O293   1.944       .  S
O283        C295   1.286       .  A
O284        C296   1.274       .  A
O285        C297   1.269       .  A
O286        C295   1.270       .  A
O287        C297   1.291       .  A
O288        C296   1.274       .  A
O289        C298   1.268       .  A
O290        C299   1.275       .  A
O291        C298   1.276       .  A
O292        C299   1.267       .  A
O293        C300   1.264       .  A
O294        C300   1.290       .  A
C295        C305   1.482       .  S
C296        C585   1.489       .  S
C297        C325   1.492       .  S
C298        C315   1.485       .  S
C299        C635   1.493       .  S
C300        C385   1.481       .  S
C301        C302   1.414       .  A
C301        C306   1.398       .  A
C301        F308   1.359       .  S
C302        C303   1.402       .  A
C303        C304   1.405       .  A
C303        F310   1.357       .  S
C304        C305   1.413       .  A
C304        F309   1.358       .  S
C305        C306   1.401       .  A
C306        F307   1.358       .  S
C311        C312   1.415       .  A
C311        C316   1.395   1_554  A
C311        F318   1.358       .  S
C312        C313   1.412       .  A
C313        C314   1.405   1_554  A
C313        F320   1.358       .  S
C314        C315   1.409       .  A
C314        F319   1.357       .  S
C315        C316   1.404       .  A
C316        F317   1.358       .  S
C321        C322   1.400       .  A
C321        C326   1.401       .  A
C321        F328   1.358       .  S
C322        C323   1.413       .  A
C323        C324   1.408       .  A
C323        F330   1.357       .  S
C324        C325   1.404       .  A
C324        F329   1.357       .  S
C325        C326   1.416       .  A
C326        F327   1.358       .  S
C331        C332   1.408       .  A
C331        C336   1.396       .  A
C331        F338   1.358       .  S
C332        C333   1.413       .  A
C333        C334   1.405       .  A
C333        F340   1.357       .  S
C334        C335   1.407       .  A
C334        F339   1.358       .  S
C335        C336   1.409       .  A
C336        F337   1.358       .  S
C341        C342   1.407       .  A
C341        C346   1.401       .  A
C341        F348   1.358       .  S
C342        C343   1.415       .  A
C343        C344   1.413       .  A
C343        F350   1.357       .  S
C344        C345   1.407       .  A
C344        F349   1.357       .  S
C345        C346   1.411       .  A
C346        F347   1.359       .  S
C351        C352   1.417       .  A
C351        C356   1.401       .  A
C351        F358   1.355       .  S
C352        C353   1.401       .  A
C353        C354   1.400       .  A
C353        F360   1.357       .  S
C354        C355   1.409       .  A
C354        F359   1.358       .  S
C355        C356   1.400       .  A
C356        F357   1.358       .  S
C361        C362   1.413       .  A
C361        C366   1.398       .  A
C361        F368   1.358       .  S
C362        C363   1.413       .  A
C363        C364   1.403       .  A
C363        F370   1.358   1_655  S
C364        C365   1.405       .  A
C364        F369   1.358   1_655  S
C365        C366   1.401       .  A
C366        F367   1.358       .  S
C371        C372   1.404       .  A
C371        C376   1.401   1_554  A
C371        F378   1.358       .  S
C372        C373   1.413       .  A
C373        C374   1.395   1_554  A
C373        F380   1.356       .  S
C374        C375   1.400       .  A
C374        F379   1.359       .  S
C375        C376   1.409       .  A
C376        F377   1.355       .  S
C381        C382   1.415       .  A
C381        C386   1.402       .  A
C381        F388   1.358       .  S
C382        C383   1.397       .  A
C383        C384   1.399       .  A
C383        F390   1.358       .  S
C384        C385   1.417       .  A
C384        F389   1.358       .  S
C385        C386   1.399       .  A
C386        F387   1.357       .  S
C391        C392   1.416       .  A
C391        C396   1.407       .  A
C391        F398   1.356       .  S
C392        C393   1.406       .  A
C393        C394   1.398       .  A
C393        F400   1.358       .  S
C394        C395   1.412       .  A
C394        F399   1.359       .  S
C395        C396   1.405       .  A
C396        F397   1.357       .  S
C401        C402   1.406       .  A
C401        C406   1.406       .  A
C401        F408   1.358       .  S
C402        C403   1.400       .  A
C403        C404   1.394       .  A
C403        F410   1.358       .  S
C404        C405   1.410       .  A
C404        F409   1.358       .  S
C405        C406   1.410       .  A
C406        F407   1.357       .  S
C411        C412   1.426       .  A
C411        C416   1.404       .  A
C411        F418   1.355       .  S
C412        C413   1.409       .  A
C413        C414   1.405       .  A
C413        F420   1.357       .  S
C414        C415   1.412       .  A
C414        F419   1.358       .  S
C415        C416   1.401       .  A
C416        F417   1.358       .  S
C421        C422   1.404       .  A
C421        C426   1.408       .  A
C421        F428   1.357       .  S
C422        C423   1.412   1_565  A
C423        C424   1.401       .  A
C423        F430   1.359       .  S
C424        C425   1.402   1_545  A
C424        F429   1.358       .  S
C425        C426   1.413       .  A
C426        F427   1.358       .  S
C431        C432   1.412   1_565  A
C431        C436   1.403   1_566  A
C431        F438   1.358       .  S
C432        C433   1.411       .  A
C433        C434   1.401   1_556  A
C433        F440   1.357       .  S
C434        C435   1.410       .  A
C434        F439   1.358       .  S
C435        C436   1.412       .  A
C436        F437   1.358   1_545  S
C441        C442   1.412       .  A
C441        C446   1.407       .  A
C441        F448   1.356       .  S
C442        C443   1.414       .  A
C443        C444   1.399       .  A
C443        F450   1.358       .  S
C444        C445   1.402       .  A
C444        F449   1.359   1_565  S
C445        C446   1.407       .  A
C446        F447   1.358       .  S
C451        C452   1.414       .  A
C451        C456   1.410       .  A
C451        F458   1.357       .  S
C452        C453   1.402       .  A
C453        C454   1.395       .  A
C453        F460   1.355       .  S
C454        C455   1.409       .  A
C454        F459   1.358       .  S
C455        C456   1.407       .  A
C456        F457   1.357   1_565  S
C461        C462   1.409       .  A
C461        C466   1.398       .  A
C461        F468   1.359       .  S
C462        C463   1.400       .  A
C463        C464   1.406       .  A
C463        F470   1.357       .  S
C464        C465   1.415       .  A
C464        F469   1.357       .  S
C465        C466   1.401       .  A
C466        F467   1.358       .  S
C471        C472   1.401       .  A
C471        C476   1.399       .  A
C471        F478   1.358       .  S
C472        C473   1.414       .  A
C473        C474   1.410       .  A
C473        F480   1.358       .  S
C474        C475   1.403       .  A
C474        F479   1.357       .  S
C475        C476   1.418       .  A
C476        F477   1.358       .  S
C481        C482   1.404       .  A
C481        C486   1.403       .  A
C481        F488   1.358       .  S
C482        C483   1.403       .  A
C483        C484   1.396       .  A
C483        F490   1.359   1_655  S
C484        C485   1.412       .  A
C484        F489   1.358   1_655  S
C485        C486   1.414       .  A
C486        F487   1.358   1_565  S
C491        C492   1.402   1_565  A
C491        C496   1.399   1_556  A
C491        F498   1.358       .  S
C492        C493   1.412       .  A
C493        C494   1.408       .  A
C493        F500   1.357       .  S
C494        C495   1.408   1_556  A
C494        F499   1.357   1_556  S
C495        C496   1.415   1_545  A
C496        F497   1.357       .  S
C501        C502   1.412       .  A
C501        C506   1.414       .  A
C501        F508   1.356       .  S
C502        C503   1.407       .  A
C503        C504   1.397       .  A
C503        F510   1.359       .  S
C504        C505   1.403       .  A
C504        F509   1.356       .  S
C505        C506   1.407       .  A
C506        F507   1.357       .  S
C511        C512   1.408       .  A
C511        C516   1.414       .  A
C511        F518   1.357       .  S
C512        C513   1.403       .  A
C513        C514   1.394       .  A
C513        F520   1.357       .  S
C514        C515   1.407       .  A
C514        F519   1.359       .  S
C515        C516   1.413       .  A
C516        F517   1.356       .  S
C521        C522   1.405       .  A
C521        C526   1.404       .  A
C521        F528   1.356       .  S
C522        C523   1.419       .  A
C523        C524   1.403       .  A
C523        F530   1.355       .  S
C524        C525   1.400       .  A
C524        F529   1.358       .  S
C525        C526   1.410       .  A
C526        F527   1.358       .  S
C531        C532   1.406       .  A
C531        C536   1.395       .  A
C531        F538   1.358       .  S
C532        C533   1.405       .  A
C533        C534   1.414       .  A
C533        F540   1.357   1_655  S
C534        C535   1.417       .  A
C534        F539   1.357       .  S
C535        C536   1.405       .  A
C536        F537   1.358       .  S
C541        C542   1.401       .  A
C541        C546   1.404       .  A
C541        F548   1.357       .  S
C542        C543   1.418       .  A
C543        C544   1.399       .  A
C543        F550   1.358       .  S
C544        C545   1.400   1_545  A
C544        F549   1.358   1_545  S
C545        C546   1.413   1_565  A
C546        F547   1.358       .  S
C551        C552   1.405       .  A
C551        C556   1.401       .  A
C551        F558   1.357       .  S
C552        C553   1.407       .  A
C553        C554   1.402       .  A
C553        F560   1.358   1_545  S
C554        C555   1.417       .  A
C554        F559   1.358       .  S
C555        C556   1.413       .  A
C556        F557   1.353       .  S
C561        C562   1.397       .  A
C561        C566   1.406       .  A
C561        F568   1.358       .  S
C562        C563   1.423       .  A
C563        C564   1.408       .  A
C563        F570   1.357       .  S
C564        C565   1.401       .  A
C564        F569   1.357       .  S
C565        C566   1.423       .  A
C566        F567   1.358       .  S
C571        C572   1.395       .  A
C571        C576   1.398       .  A
C571        F578   1.358       .  S
C572        C573   1.411       .  A
C573        C574   1.407       .  A
C573        F580   1.356       .  S
C574        C575   1.407       .  A
C574        F579   1.357   1_545  S
C575        C576   1.422       .  A
C576        F577   1.358       .  S
C581        C582   1.404       .  A
C581        C586   1.410       .  A
C581        F588   1.357       .  S
C582        C583   1.420       .  A
C583        C584   1.395       .  A
C583        F590   1.357       .  S
C584        C585   1.399       .  A
C584        F589   1.358       .  S
C585        C586   1.415       .  A
C586        F587   1.355       .  S
C591        C592   1.418       .  A
C591        C596   1.401       .  A
C591        F598   1.357       .  S
C592        C593   1.409       .  A
C593        C594   1.398       .  A
C593        F600   1.357       .  S
C594        C595   1.412       .  A
C594        F599   1.358       .  S
C595        C596   1.404       .  A
C596        F597   1.358       .  S
C601        C602   1.419       .  A
C601        C606   1.400       .  A
C601        F608   1.358       .  S
C602        C603   1.404       .  A
C603        C604   1.407       .  A
C603        F610   1.356       .  S
C604        C605   1.416       .  A
C604        F609   1.358       .  S
C605        C606   1.402       .  A
C606        F607   1.358       .  S
C611        C612   1.416       .  A
C611        C616   1.414       .  A
C611        F618   1.356       .  S
C612        C613   1.399       .  A
C613        C614   1.404       .  A
C613        F620   1.358       .  S
C614        C615   1.420       .  A
C614        F619   1.358       .  S
C615        C616   1.407       .  A
C616        F617   1.357       .  S
C621        C622   1.422       .  A
C621        C626   1.405       .  A
C621        F628   1.354       .  S
C622        C623   1.409       .  A
C623        C624   1.401       .  A
C623        F630   1.358       .  S
C624        C625   1.414       .  A
C624        F629   1.358       .  S
C625        C626   1.406       .  A
C626        F627   1.358       .  S
C631        C632   1.412       .  A
C631        C636   1.407       .  A
C631        F638   1.356       .  S
C632        C633   1.421       .  A
C633        C634   1.395       .  A
C633        F640   1.356       .  S
C634        C635   1.406       .  A
C634        F639   1.359       .  S
C635        C636   1.411       .  A
C636        F637   1.358       .  S
C641        C642   1.405       .  A
C641        C646   1.405       .  A
C641        F648   1.358       .  S
C642        C643   1.423       .  A
C643        C644   1.404       .  A
C643        F650   1.358       .  S
C644        C645   1.399       .  A
C644        F649   1.356       .  S
C645        C646   1.420       .  A
C646        F647   1.358       .  S
C651        C652   1.413       .  A
C651        C656   1.407       .  A
C651        F658   1.357       .  S
C652        C653   1.418       .  A
C653        C654   1.406       .  A
C653        F660   1.356       .  S
C654        C655   1.404       .  A
C654        F659   1.358       .  S
C655        C656   1.409       .  A
C656        F657   1.358       .  S
C661        C662   1.403       .  A
C661        C666   1.401       .  A
C661        F668   1.358       .  S
C662        C663   1.418       .  A
C663        C664   1.405       .  A
C663        F670   1.358       .  S
C664        C665   1.403       .  A
C664        F669   1.357       .  S
C665        C666   1.422       .  A
C666        F667   1.356       .  S
C671        C672   1.399       .  A
C671        C676   1.400       .  A
C671        F678   1.357       .  S
C672        C673   1.423       .  A
C673        C674   1.400       .  A
C673        F680   1.356       .  S
C674        C675   1.400       .  A
C674        F679   1.358       .  S
C675        C676   1.419       .  A
C676        F677   1.358       .  S
C681        C682   1.412       .  A
C681        C686   1.402       .  A
C681        F688   1.358   1_554  S
C682        C683   1.410       .  A
C683        C684   1.403       .  A
C683        F690   1.357       .  S
C684        C685   1.407       .  A
C684        F689   1.358       .  S
C685        C686   1.403       .  A
C686        F687   1.358   1_455  S
C691        C692   1.414       .  A
C691        C696   1.404       .  A
C691        F698   1.358       .  S
C692        C693   1.398       .  A
C693        C694   1.405       .  A
C693        F700   1.358       .  S
C694        C695   1.421       .  A
C694        F699   1.357       .  S
C695        C696   1.406       .  A
C696        F697   1.357   1_455  S
C701        C702   1.428       .  A
C701        C706   1.413       .  A
C701        F708   1.354       .  S
C702        C703   1.422       .  A
C703        C704   1.405       .  A
C703        F710   1.355       .  S
C704        C705   1.418       .  A
C704        F709   1.357       .  S
C705        C706   1.409       .  A
C706        F707   1.357       .  S
C711        C712   1.426       .  A
C711        C716   1.411       .  A
C711        F718   1.356       .  S
C712        C713   1.421       .  A
C713        C714   1.407       .  A
C713        F720   1.357       .  S
C714        C715   1.417       .  A
C714        F719   1.357       .  S
C715        C716   1.418       .  A
C716        F717   1.357       .  S
C721        C722   1.425       .  A
C721        C726   1.412       .  A
C721        F728   1.356       .  S
C722        C723   1.421       .  A
C723        C724   1.416       .  A
C723        F730   1.357       .  S
C724        C725   1.417       .  A
C724        F729   1.357       .  S
C725        C726   1.419       .  A
C726        F727   1.357       .  S
C731        C732   1.426       .  A
C731        C736   1.414       .  A
C731        F738   1.357       .  S
C732        C733   1.408       .  A
C733        C734   1.410       .  A
C733        F740   1.353       .  S
C734        C735   1.427       .  A
C734        F739   1.355       .  S
C735        C736   1.419       .  A
C736        F737   1.357       .  S
C741        C742   1.403       .  A
C741        C746   1.417   1_554  A
C741        F748   1.357   1_554  S
C742        C743   1.418       .  A
C743        C744   1.413       .  A
C743        F750   1.357       .  S
C744        C745   1.421       .  A
C744        F749   1.354       .  S
C745        C746   1.431   1_554  A
C746        F747   1.357       .  S
C751        C752   1.414       .  A
C751        C756   1.425       .  A
C751        F758   1.355       .  S
C752        C753   1.415   1_554  A
C753        C754   1.407       .  A
C753        F760   1.358       .  S
C754        C755   1.429       .  A
C754        F759   1.351       .  S
C755        C756   1.427   1_556  A
C756        F757   1.355       .  S
C761        C762   1.421       .  A
C761        C766   1.415       .  A
C761        F768   1.350       .  S
C762        C763   1.428       .  A
C763        C764   1.404       .  A
C763        F770   1.356       .  S
C764        C765   1.410       .  A
C764        F769   1.358       .  S
C765        C766   1.407       .  A
C766        F767   1.356       .  S
C771        C772   1.431       .  A
C771        C776   1.425       .  A
C771        F778   1.355       .  S
C772        C773   1.421       .  A
C773        C774   1.400       .  A
C773        F780   1.356   1_556  S
C774        C775   1.410       .  A
C774        F779   1.357       .  S
C775        C776   1.410       .  A
C776        F777   1.357       .  S
C781        C782   1.422       .  A
C781        C786   1.415       .  A
C781        F788   1.354       .  S
C782        C783   1.424       .  A
C783        C784   1.399       .  A
C783        F790   1.356       .  S
C784        C785   1.412       .  A
C784        F789   1.357       .  S
C785        C786   1.412       .  A
C786        F787   1.356       .  S
C791        C792   1.426       .  A
C791        C796   1.399       .  A
C791        F798   1.357       .  S
C792        C793   1.425       .  A
C793        C794   1.419       .  A
C793        F800   1.356       .  S
C794        C795   1.407       .  A
C794        F799   1.356       .  S
C795        C796   1.413       .  A
C796        F797   1.354       .  S
C801        C802   1.422       .  A
C801        C806   1.403       .  A
C801        F808   1.358       .  S
C802        C803   1.423       .  A
C803        C804   1.414       .  A
C803        F810   1.355       .  S
C804        C805   1.414       .  A
C804        F809   1.356       .  S
C805        C806   1.417       .  A
C806        F807   1.357       .  S
C811        C812   1.428       .  A
C811        C816   1.424       .  A
C811        F818   1.356       .  S
C812        C813   1.426       .  A
C813        C814   1.398       .  A
C813        F820   1.356       .  S
C814        C815   1.414       .  A
C814        F819   1.355       .  S
C815        C816   1.409       .  A
C816        F817   1.357       .  S
C821        C822   1.424       .  A
C821        C826   1.413       .  A
C821        F828   1.357       .  S
C822        C823   1.405       .  A
C823        C824   1.413   1_554  A
C823        F830   1.357       .  S
C824        C825   1.432   1_556  A
C824        F829   1.356       .  S
C825        C826   1.418       .  A
C826        F827   1.357       .  S
C831        C832   1.430   1_554  A
C831        C836   1.423       .  A
C831        F838   1.354       .  S
C832        C833   1.420       .  A
C833        C834   1.400       .  A
C833        F840   1.348       .  S
C834        C835   1.406   1_556  A
C834        F839   1.357       .  S
C835        C836   1.408       .  A
C836        F837   1.356       .  S
C841        C842   1.415       .  A
C841        C846   1.419       .  A
C841        F848   1.353       .  S
C842        C843   1.413       .  A
C843        C844   1.409       .  A
C843        F850   1.356       .  S
C844        C845   1.430       .  A
C844        F849   1.356       .  S
C845        C846   1.422       .  A
C846        F847   1.356       .  S
C851        C852   1.430       .  A
C851        C856   1.419       .  A
C851        F858   1.354       .  S
C852        C853   1.422       .  A
C853        C854   1.402       .  A
C853        F860   1.357   1_556  S
C854        C855   1.408       .  A
C854        F859   1.357       .  S
C855        C856   1.406       .  A
C856        F857   1.356       .  S
