geometry optimzed in LAMMPS
_audit_creation_date              2020-11-30 
_audit_creation_method            'lammps2cif' 
_symmetry_space_group_name_H-M    'P1' 
_symmetry_Int_Tables_number       1 
_symmetry_cell_setting            triclinic 
loop_ 
_symmetry_equiv_pos_as_xyz 
  x,y,z 
_cell_length_a                    80.05736127 
_cell_length_b                    80.18742085296148 
_cell_length_c                    80.0909716498291 
_cell_angle_alpha                 89.84533021203488 
_cell_angle_beta                  89.90580914949275 
_cell_angle_gamma                 90.19467112939839 
loop_ 
_atom_site_label 
_atom_site_type_symbol 
_atom_site_fract_x 
_atom_site_fract_y 
_atom_site_fract_z 
_atom_site_charge 
Zn1        Zn  0.50470222  0.50386588  0.97799376     1.49700
Zn2        Zn  0.51504958  0.51367082  0.01520481     1.49400
Zn3        Zn  0.47712150  0.50393764  0.00710470     1.49100
Zn4        Zn  0.50519034  0.47572072  0.00685748     1.49500
O5          O  0.50054027  0.49924501  0.00175106    -1.83100
O6          O  0.52328800  0.52089980  0.97494739    -0.73700
O7          O  0.50149198  0.52883321  0.03010392    -0.73500
O8          O  0.46459606  0.51169405  0.98685830    -0.73000
O9          O  0.52972691  0.52838437  0.00074229    -0.73700
O10         O  0.48387019  0.51287759  0.96682515    -0.73300
O11         O  0.47521347  0.52195741  0.02445095    -0.73900
O12         O  0.48437071  0.46377318  0.01536104    -0.73300
O13         O  0.53015945  0.49986799  0.02984579    -0.74100
O14         O  0.46512660  0.48362432  0.01573789    -0.73400
O15         O  0.52310369  0.47377479  0.02475334    -0.73900
O16         O  0.51306587  0.46369916  0.98600749    -0.73800
O17         O  0.51159404  0.48282743  0.96588407    -0.73600
C18         C  0.53184081  0.52974523  0.98502882     0.78200
C19         C  0.48585467  0.53074260  0.03233586     0.78700
C20         C  0.46892048  0.51490051  0.97190478     0.77600
C21         C  0.46948664  0.46859240  0.01828406     0.78000
C22         C  0.53201896  0.48434776  0.03263635     0.79100
C23         C  0.51469180  0.46800554  0.97073878     0.78200
Zn24       Zn  0.49562582  0.02225430  0.49838366     1.49700
Zn25       Zn  0.49182354  0.99331616  0.52586756     1.49400
Zn26       Zn  0.48455330  0.98523554  0.48759208     1.49100
Zn27       Zn  0.52198674  0.99190393  0.50006743     1.49500
O28         O  0.49851871  0.99826340  0.50290740    -1.83100
O29         O  0.48775499  0.03450423  0.51923559    -0.73700
O30         O  0.47215058  0.97763878  0.52661575    -0.73500
O31         O  0.47065686  0.00043907  0.47314630    -0.73000
O32         O  0.48540956  0.01412770  0.53785969    -0.73700
O33         O  0.47859797  0.02604532  0.47988986    -0.73300
O34         O  0.46841255  0.97018297  0.50014205    -0.73900
O35         O  0.52434899  0.97416222  0.48243681    -0.73300
O36         O  0.51050763  0.98328423  0.53929456    -0.74100
O37         O  0.49877443  0.97111576  0.47226634    -0.73400
O38         O  0.53198992  0.98335642  0.52175160    -0.73900
O39         O  0.53567287  0.01149836  0.49183879    -0.73800
O40         O  0.51751945  0.03247799  0.49073682    -0.73600
C41         C  0.48424953  0.02945266  0.53395994     0.78200
C42         C  0.46454653  0.96916221  0.51555079     0.78700
C43         C  0.46966130  0.01617073  0.47116433     0.77600
C44         C  0.51430461  0.96767754  0.47196292     0.78000
C45         C  0.52582887  0.98048501  0.53617857     0.79100
C46         C  0.53215955  0.02664663  0.48864212     0.78200
Zn47       Zn  0.97811844  0.50035366  0.50843237     1.49700
Zn48       Zn  0.01595443  0.51057808  0.51768772     1.49400
Zn49       Zn  0.00659104  0.47270998  0.50885268     1.49100
Zn50       Zn  0.00706563  0.50103401  0.48048968     1.49500
O51         O  0.00183442  0.49617544  0.50385358    -1.83100
O52         O  0.97590858  0.51730851  0.52705007    -0.73700
O53         O  0.02914927  0.49698579  0.53393257    -0.73500
O54         O  0.98575163  0.45985961  0.51466721    -0.73000
O55         O  0.00192719  0.52615339  0.53149669    -0.73700
O56         O  0.96578552  0.47893787  0.51514554    -0.73300
O57         O  0.02214124  0.47068605  0.52845563    -0.73900
O58         O  0.01597449  0.48054064  0.46923070    -0.73300
O59         O  0.03257984  0.52395165  0.50409340    -0.74100
O60         O  0.01671634  0.46114302  0.48900530    -0.73400
O61         O  0.02504115  0.51870327  0.47808943    -0.73900
O62         O  0.98645341  0.50867392  0.46811134    -0.73800
O63         O  0.96674713  0.50966941  0.48776869    -0.73600
C64         C  0.98631749  0.52677966  0.53451723     0.78200
C65         C  0.03018679  0.48144889  0.53691488     0.78700
C66         C  0.97055353  0.46385559  0.51690750     0.77600
C67         C  0.01922476  0.46573751  0.47397808     0.78000
C68         C  0.03448831  0.52617326  0.48846235     0.79100
C69         C  0.97155585  0.51182272  0.47272738     0.78200
Zn70       Zn  0.02063852  0.01653637  0.00830130     1.49700
Zn71       Zn  0.98247649  0.00730047  0.00086390     1.49400
Zn72       Zn  0.00986010  0.00760547  0.97088081     1.49100
Zn73       Zn  0.01062047  0.97893102  0.99882170     1.49500
O74         O  0.00581731  0.00258262  0.99464048    -1.83100
O75         O  0.00765230  0.03309303  0.02196063    -0.73700
O76         O  0.96963501  0.01507095  0.98052580    -0.73500
O77         O  0.02862348  0.02469230  0.96804982    -0.73000
O78         O  0.98122378  0.02581855  0.01833832    -0.73700
O79         O  0.03658416  0.03008560  0.99408816    -0.73300
O80         O  0.98853457  0.01584669  0.96004216    -0.73900
O81         O  0.01822573  0.96738922  0.97764319    -0.73300
O82         O  0.97062626  0.98638751  0.00949284    -0.74100
O83         O  0.01686347  0.98694542  0.95813346    -0.73400
O84         O  0.99001966  0.96667318  0.00770987    -0.73900
O85         O  0.02907027  0.97652242  0.01584188    -0.73800
O86         O  0.03439951  0.00229583  0.02395297    -0.73600
C87         C  0.99221401  0.03521565  0.02506717     0.78200
C88         C  0.97364986  0.01781083  0.96536097     0.78700
C89         C  0.03812541  0.03218671  0.97840171     0.77600
C90         C  0.01985814  0.97195392  0.96246388     0.78000
C91         C  0.97517943  0.97124744  0.01127072     0.79100
C92         C  0.03701690  0.98667045  0.02514055     0.78200
Zn93       Zn  0.49862970  0.72687023  0.25509518     1.49700
Zn94       Zn  0.48845981  0.76410717  0.26406112     1.49400
Zn95       Zn  0.52582682  0.75661911  0.25319668     1.49100
Zn96       Zn  0.49635637  0.75392006  0.22614869     1.49500
O97         O  0.50239725  0.75035246  0.24958334    -1.83100
O98         O  0.48062523  0.72402276  0.27250435    -0.73700
O99         O  0.50225352  0.77860009  0.27936415    -0.73500
O100        O  0.53877541  0.73688473  0.26207669    -0.73000
O101        O  0.47288064  0.74995263  0.27815485    -0.73700
O102        O  0.51980696  0.71649069  0.26327553    -0.73300
O103        O  0.52800383  0.77550624  0.26989863    -0.73900
O104        O  0.51590262  0.76322695  0.21316850    -0.73300
O105        O  0.47444887  0.77958773  0.25019513    -0.74100
O106        O  0.53661619  0.76422675  0.23163151    -0.73400
O107        O  0.47777894  0.77070327  0.22432278    -0.73900
O108        O  0.48912372  0.73245176  0.21489191    -0.73800
O109        O  0.49110496  0.71365508  0.23519697    -0.73600
C110        C  0.47132786  0.73426418  0.28027002     0.78200
C111        C  0.51767178  0.78253020  0.27972703     0.78700
C112        C  0.53464498  0.72184995  0.26528288     0.77600
C113        C  0.53102488  0.76644708  0.21691106     0.78000
C114        C  0.47090714  0.78051048  0.23473751     0.79100
C115        C  0.48771324  0.71750984  0.22017517     0.78200
Zn116      Zn  0.51385774  0.23508937  0.73568649     1.49700
Zn117      Zn  0.50678670  0.27280974  0.74615869     1.49400
Zn118      Zn  0.47693732  0.24570291  0.74693463     1.49100
Zn119      Zn  0.50651842  0.24397773  0.77379420     1.49500
O120        O  0.50093254  0.24944005  0.75065108    -1.83100
O121        O  0.52715591  0.24856184  0.71908290    -0.73700
O122        O  0.48632280  0.28575416  0.73909170    -0.73500
O123        O  0.47315534  0.22669591  0.73054648    -0.73000
O124        O  0.52394120  0.27459432  0.72771996    -0.73700
O125        O  0.49882962  0.21934924  0.72308150    -0.73300
O126        O  0.46601416  0.26670516  0.73799459    -0.73900
O127        O  0.48617597  0.23629131  0.78657235    -0.73300
O128        O  0.51637004  0.28411240  0.76653097    -0.74100
O129        O  0.46523631  0.23945748  0.76861915    -0.73400
O130        O  0.51558421  0.26419778  0.78589450    -0.73900
O131        O  0.52395940  0.22584290  0.77480674    -0.73800
O132        O  0.53039584  0.22111228  0.74840078    -0.73600
C133        C  0.53053108  0.26404167  0.71786321     0.78200
C134        C  0.47123688  0.28163407  0.73611575     0.78700
C135        C  0.48305335  0.21745076  0.72220996     0.77600
C136        C  0.47067551  0.23566779  0.78308670     0.78000
C137        C  0.51884769  0.27911592  0.78141882     0.79100
C138        C  0.53270499  0.21832987  0.76386644     0.78200
Zn139      Zn  0.25364953  0.49649611  0.73030009     1.49700
Zn140      Zn  0.22479358  0.49822695  0.75814169     1.49400
Zn141      Zn  0.26196552  0.48757697  0.76799809     1.49100
Zn142      Zn  0.25425023  0.52534155  0.75791466     1.49500
O143        O  0.24859777  0.50195954  0.75357138    -1.83100
O144        O  0.23318588  0.48844105  0.71852220    -0.73700
O145        O  0.22147729  0.48050005  0.77594488    -0.73500
O146        O  0.27708555  0.47255005  0.75482147    -0.73000
O147        O  0.21285926  0.49051023  0.73736737    -0.73700
O148        O  0.27099628  0.47831823  0.72844722    -0.73300
O149        O  0.24740628  0.47286322  0.78198674    -0.73900
O150        O  0.27162386  0.52718077  0.77608686    -0.73300
O151        O  0.21370190  0.51938248  0.76595235    -0.74100
O152        O  0.27617284  0.50097645  0.78369106    -0.73400
O153        O  0.23391437  0.53847551  0.76509904    -0.73900
O154        O  0.26318085  0.53645591  0.73723522    -0.73800
O155        O  0.26175765  0.51675634  0.71775497    -0.73600
C156        C  0.21794025  0.48692315  0.72273910     0.78200
C157        C  0.23172214  0.47148340  0.78409541     0.78700
C158        C  0.27918722  0.47006055  0.73927734     0.77600
C159        C  0.27893449  0.51651832  0.78534244     0.78000
C160        C  0.21879794  0.53431425  0.76789584     0.79100
C161        C  0.26501147  0.53163414  0.72222373     0.78200
Zn162      Zn  0.36107730  0.36077202  0.89770345     1.49700
Zn163      Zn  0.38874880  0.36072989  0.86896205     1.49400
Zn164      Zn  0.36114850  0.38849438  0.86891002     1.49100
Zn165      Zn  0.38935823  0.38905081  0.89672455     1.49500
O166        O  0.37503765  0.37471917  0.88319639    -1.83100
O167        O  0.36538643  0.33640381  0.89343294    -0.73700
O168        O  0.38483180  0.36492195  0.84459807    -0.73500
O169        O  0.33702735  0.38509526  0.87424958    -0.73000
O170        O  0.38372260  0.33671569  0.87272191    -0.73700
O171        O  0.33649964  0.36486644  0.89311992    -0.73300
O172        O  0.36401052  0.38299179  0.84465318    -0.73900
O173        O  0.38390982  0.41328032  0.89316642    -0.73300
O174        O  0.41295653  0.36451725  0.87338537    -0.74100
O175        O  0.36646795  0.41271930  0.87175663    -0.73400
O176        O  0.41359006  0.38590563  0.89085797    -0.73900
O177        O  0.38693144  0.38364133  0.92111007    -0.73800
O178        O  0.36635990  0.36501102  0.92207224    -0.73600
C179        C  0.37444861  0.32875241  0.88288003     0.78200
C180        C  0.37418143  0.37370616  0.83681858     0.78700
C181        C  0.32890671  0.37503846  0.88352332     0.77600
C182        C  0.37516842  0.42082715  0.88225894     0.78000
C183        C  0.42105962  0.37526648  0.88177902     0.79100
C184        C  0.37725661  0.37404985  0.92936438     0.78200
N185        N  0.20310407  0.38309648  0.88382654    -0.02400
C186        C  0.19228780  0.39219469  0.87443305     0.00200
C187        C  0.17622207  0.39039362  0.88058213    -0.22700
C188        C  0.17716653  0.37994082  0.89419674    -0.22900
C189        C  0.19377273  0.37562169  0.89592328     0.00100
H190        H  0.16497045  0.39606545  0.87564263     0.13800
H191        H  0.16682444  0.37576019  0.90190423     0.13900
N192        N  0.37232602  0.54654074  0.88084454    -0.02400
C193        C  0.38236696  0.55667865  0.89000128     0.00200
C194        C  0.37842349  0.57318875  0.88700769    -0.22700
C195        C  0.36553677  0.57319944  0.87562877    -0.22900
C196        C  0.36203431  0.55669667  0.87199327     0.00100
H197        H  0.38425608  0.58403193  0.89252574     0.13800
H198        H  0.35942634  0.58408556  0.87049607     0.13900
N199        N  0.54656476  0.37243796  0.87709682    -0.02400
C200        C  0.55605717  0.38163943  0.88773691     0.00200
C201        C  0.57279195  0.37846319  0.88495605    -0.22700
C202        C  0.57360316  0.36695706  0.87223181    -0.22900
C203        C  0.55733626  0.36337755  0.86760919     0.00100
H204        H  0.58329278  0.38404525  0.89139470     0.13800
H205        H  0.58488799  0.36175846  0.86689577     0.13900
N206        N  0.37650881  0.37667950  0.71120007    -0.02400
C207        C  0.36738759  0.38747552  0.70179747     0.00200
C208        C  0.37157739  0.38581062  0.68512460    -0.22700
C209        C  0.38358984  0.37360225  0.68421438    -0.22900
C210        C  0.38644404  0.36820308  0.70036561     0.00100
H211        H  0.36641307  0.39272607  0.67471952     0.13800
H212        H  0.38963893  0.36917009  0.67298174     0.13900
N213        N  0.37589262  0.20335958  0.87769177    -0.02400
C214        C  0.36586877  0.19251306  0.88614720     0.00200
C215        C  0.37066290  0.17630258  0.88279436    -0.22700
C216        C  0.38405344  0.17725225  0.87197452    -0.22900
C217        C  0.38703460  0.19400514  0.86901748     0.00100
H218        H  0.36504485  0.16501395  0.88768025     0.13800
H219        H  0.39078856  0.16683240  0.86669088     0.13900
N220        N  0.37896898  0.37312252  0.05517450    -0.02400
C221        C  0.38724044  0.38411670  0.06508382     0.00200
C222        C  0.38392596  0.38074256  0.08169910    -0.22700
C223        C  0.37326067  0.36724314  0.08203437    -0.22900
C224        C  0.37030269  0.36283559  0.06560553     0.00100
H225        H  0.38871704  0.38742473  0.09243123     0.13800
H226        H  0.36802856  0.36139807  0.09309469     0.13900
Zn227      Zn  0.26810218  0.26717768  0.98820713     1.49700
Zn228      Zn  0.22959179  0.25833418  0.99622534     1.49400
Zn229      Zn  0.25756455  0.22994609  0.99815924     1.49100
Zn230      Zn  0.25632138  0.25865884  0.02550635     1.49500
O231        O  0.25288483  0.25356067  0.00193820    -1.83100
O232        O  0.25521308  0.28379791  0.97447679    -0.73700
O233        O  0.21818781  0.23801243  0.98618170    -0.73500
O234        O  0.27466003  0.22703114  0.97982684    -0.73000
O235        O  0.22860424  0.27796943  0.98031500    -0.73700
O236        O  0.28166756  0.25284498  0.97243629    -0.73300
O237        O  0.23670640  0.21788168  0.99085574    -0.73900
O238        O  0.26290314  0.23819128  0.03822397    -0.73300
O239        O  0.21621832  0.26455921  0.01680434    -0.74100
O240        O  0.26602061  0.21863748  0.01908640    -0.73400
O241        O  0.23540346  0.26708664  0.03656261    -0.73900
O242        O  0.27495242  0.27532155  0.02847370    -0.73800
O243        O  0.28394966  0.28051140  0.00266364    -0.73600
C244        C  0.23968084  0.28670963  0.97284487     0.78200
C245        C  0.22238418  0.22268350  0.98593646     0.78700
C246        C  0.28297018  0.23710742  0.97067841     0.77600
C247        C  0.26685502  0.22339179  0.03422712     0.78000
C248        C  0.22027435  0.26798023  0.03178985     0.79100
C249        C  0.28489683  0.28263409  0.01839182     0.78200
Zn250      Zn  0.74751790  0.50854391  0.27445434     1.49700
Zn251      Zn  0.77524194  0.50950806  0.24522822     1.49400
Zn252      Zn  0.74743467  0.48107862  0.24571325     1.49100
Zn253      Zn  0.73690274  0.51874328  0.23747305     1.49500
O254        O  0.75183739  0.50453207  0.25073182    -1.83100
O255        O  0.76846049  0.51647446  0.28594704    -0.73700
O256        O  0.78760493  0.48883230  0.23695300    -0.73500
O257        O  0.73883359  0.46854084  0.26582124    -0.73000
O258        O  0.78739458  0.51790923  0.26566436    -0.73700
O259        O  0.73892599  0.48769637  0.28587603    -0.73300
O260        O  0.76782497  0.46933700  0.23733893    -0.73900
O261        O  0.72103969  0.50479623  0.22383189    -0.73300
O262        O  0.77642618  0.52711997  0.22697810    -0.74100
O263        O  0.73010078  0.47902574  0.22792935    -0.73400
O264        O  0.75002168  0.53278821  0.22106227    -0.73900
O265        O  0.72292094  0.53384559  0.25216736    -0.73800
O266        O  0.72993918  0.52613775  0.27785044    -0.73600
C267        C  0.78322177  0.51976646  0.28091778     0.78200
C268        C  0.78277464  0.47388121  0.23440494     0.78700
C269        C  0.73604063  0.47292857  0.28081234     0.77600
C270        C  0.72025004  0.48922962  0.22084719     0.78000
C271        C  0.76556265  0.53490637  0.21832716     0.79100
C272        C  0.72129719  0.53504603  0.26795517     0.78200
Zn273      Zn  0.26263944  0.76259445  0.48388698     1.49700
Zn274      Zn  0.25491132  0.72444538  0.49293394     1.49400
Zn275      Zn  0.25358501  0.75213861  0.52139288     1.49100
Zn276      Zn  0.22521674  0.75110095  0.49312783     1.49500
O277        O  0.24904223  0.74761842  0.49781525    -1.83100
O278        O  0.27726860  0.74954411  0.46805886    -0.73700
O279        O  0.26267719  0.71222906  0.51340333    -0.73500
O280        O  0.27178968  0.76945584  0.52412928    -0.73000
O281        O  0.27289584  0.72320666  0.47547134    -0.73700
O282        O  0.27786532  0.77695094  0.49811811    -0.73300
O283        O  0.26058972  0.73118947  0.53348461    -0.73900
O284        O  0.21281640  0.75834373  0.51399764    -0.73300
O285        O  0.23512816  0.71169092  0.48423708    -0.74100
O286        O  0.23301045  0.76063087  0.53295900    -0.73400
O287        O  0.21440276  0.73008450  0.48427052    -0.73900
O288        O  0.22219084  0.76909442  0.47565601    -0.73800
O289        O  0.24799692  0.77761817  0.46987275    -0.73600
C290        C  0.28024657  0.73404169  0.46640153     0.78200
C291        C  0.26384040  0.71643245  0.52865802     0.78700
C292        C  0.28016415  0.77826897  0.51381187     0.77600
C293        C  0.21778560  0.76199388  0.52865094     0.78000
C294        C  0.21997739  0.71549948  0.48144551     0.79100
C295        C  0.23225721  0.77858458  0.46771835     0.78200
Zn296      Zn  0.61300874  0.64143400  0.14006093     1.49700
Zn297      Zn  0.63991997  0.64047184  0.11033932     1.49400
Zn298      Zn  0.64155033  0.61374848  0.13993180     1.49100
Zn299      Zn  0.61219020  0.61190022  0.11327930     1.49500
O300        O  0.62664789  0.62696800  0.12590011    -1.83100
O301        O  0.61734934  0.66561862  0.13466238    -0.73700
O302        O  0.66454205  0.63600760  0.11318523    -0.73500
O303        O  0.63694148  0.61763023  0.16440624    -0.73000
O304        O  0.63593809  0.66518450  0.11397743    -0.73700
O305        O  0.61771494  0.63754806  0.16453148    -0.73300
O306        O  0.66549128  0.61949823  0.13532406    -0.73900
O307        O  0.61690520  0.58797508  0.11892534    -0.73300
O308        O  0.63436067  0.63467653  0.08650732    -0.74100
O309        O  0.63911418  0.58910426  0.13523950    -0.73400
O310        O  0.61601225  0.61400666  0.08849027    -0.73900
O311        O  0.58796771  0.61661173  0.11783213    -0.73800
O312        O  0.58842636  0.63703146  0.13657007    -0.73600
C313        C  0.62657627  0.67315037  0.12406438     0.78200
C314        C  0.67287697  0.62775707  0.12389435     0.78700
C315        C  0.62729604  0.62750736  0.17225454     0.77600
C316        C  0.62847180  0.58068032  0.12697643     0.78000
C317        C  0.62511543  0.62366780  0.07970392     0.79100
C318        C  0.58045751  0.62683158  0.12736346     0.78200
N319        N  0.62793200  0.62311684  0.95388224    -0.02400
C320        C  0.63881796  0.63181644  0.94400669     0.00200
C321        C  0.63595761  0.62790509  0.92742376    -0.22700
C322        C  0.62286418  0.61674726  0.92706260    -0.22900
C323        C  0.61814875  0.61391333  0.94343857     0.00100
H324        H  0.64261361  0.63276278  0.91666578     0.13800
H325        H  0.61741100  0.61122252  0.91600492     0.13900
N326        N  0.62598398  0.45482795  0.12864318    -0.02400
C327        C  0.61637385  0.44459760  0.11915521     0.00200
C328        C  0.61915381  0.42813907  0.12354282    -0.22700
C329        C  0.63084369  0.42828007  0.13616567    -0.22900
C330        C  0.63478053  0.44481196  0.13908100     0.00100
H331        H  0.61322515  0.41723708  0.11822728     0.13800
H332        H  0.63588177  0.41750171  0.14257261     0.13900
N333        N  0.79883594  0.62675654  0.12208536    -0.02400
C334        C  0.80903637  0.63666318  0.11280167     0.00200
C335        C  0.82555760  0.63287395  0.11609703    -0.22700
C336        C  0.82545558  0.62020750  0.12780232    -0.22900
C337        C  0.80888121  0.61666160  0.13122849     0.00100
H338        H  0.83647181  0.63862475  0.11053742     0.13800
H339        H  0.83629020  0.61421669  0.13319730     0.13900
N340        N  0.45462833  0.62384474  0.12706480    -0.02400
C341        C  0.44449244  0.61544911  0.11636503     0.00200
C342        C  0.42794194  0.61872083  0.12004195    -0.22700
C343        C  0.42788279  0.62943135  0.13343850    -0.22900
C344        C  0.44439767  0.63243489  0.13750313     0.00100
H345        H  0.41706616  0.61377606  0.11368375     0.13800
H346        H  0.41694278  0.63460449  0.13950127     0.13900
N347        N  0.62059417  0.79886375  0.11844127    -0.02400
C348        C  0.62996541  0.80949333  0.10898413     0.00200
C349        C  0.62451814  0.82569920  0.11102949    -0.22700
C350        C  0.61132358  0.82507919  0.12200674    -0.22900
C351        C  0.60920270  0.80853475  0.12648956     0.00100
H352        H  0.62961881  0.83678528  0.10519181     0.13800
H353        H  0.60419089  0.83562129  0.12646274     0.13900
N354        N  0.62254624  0.62352541  0.29828933    -0.02400
C355        C  0.61279741  0.63318766  0.30823132     0.00200
C356        C  0.61450598  0.62849190  0.32475002    -0.22700
C357        C  0.62569534  0.61552068  0.32504193    -0.22900
C358        C  0.63052792  0.61274904  0.30869394     0.00100
H359        H  0.60841522  0.63404727  0.33544741     0.13800
H360        H  0.63007719  0.60898551  0.33604861     0.13900
Zn361      Zn  0.73672656  0.73896668  0.01310681     1.49700
Zn362      Zn  0.74558326  0.74857658  0.97519096     1.49400
Zn363      Zn  0.74691482  0.77658578  0.00387201     1.49100
Zn364      Zn  0.77447868  0.74817536  0.00313793     1.49500
O365        O  0.75091726  0.75305408  0.99874406    -1.83100
O366        O  0.72155788  0.72390794  0.99946616    -0.73700
O367        O  0.73634621  0.76932655  0.96395022    -0.73500
O368        O  0.72852845  0.77876913  0.02093366    -0.73000
O369        O  0.72824722  0.73002273  0.97320414    -0.73700
O370        O  0.72214426  0.75292260  0.02802244    -0.73300
O371        O  0.73892240  0.78881334  0.98343763    -0.73900
O372        O  0.78706405  0.76848261  0.01177115    -0.73300
O373        O  0.76638828  0.74121148  0.96260850    -0.74100
O374        O  0.76777458  0.78829547  0.01265922    -0.73400
O375        O  0.78596170  0.74030673  0.98231486    -0.73900
O376        O  0.77666874  0.72958264  0.01993125    -0.73800
O377        O  0.75071616  0.72408384  0.02780931    -0.73600
C378        C  0.71982646  0.72158182  0.98382713     0.78200
C379        C  0.73476127  0.78439418  0.96875505     0.78700
C380        C  0.71991139  0.76854433  0.02959185     0.77600
C381        C  0.78276841  0.78345126  0.01491665     0.78000
C382        C  0.78130159  0.73820486  0.96728801     0.79100
C383        C  0.76634289  0.72136978  0.02886713     0.78200
Zn384      Zn  0.10574572  0.63680876  0.63813388     1.49700
Zn385      Zn  0.13504031  0.61025602  0.63768638     1.49400
Zn386      Zn  0.10800990  0.61084604  0.60814082     1.49100
Zn387      Zn  0.13497359  0.63975394  0.61128048     1.49500
O388        O  0.12090888  0.62433855  0.62380545    -1.83100
O389        O  0.10890176  0.63115221  0.66236417    -0.73700
O390        O  0.13100224  0.58604531  0.63246376    -0.73500
O391        O  0.08349151  0.61648378  0.60941530    -0.73000
O392        O  0.13036371  0.61399386  0.66207930    -0.73700
O393        O  0.08198134  0.63249627  0.63186463    -0.73300
O394        O  0.11108381  0.58621170  0.61307683    -0.73900
O395        O  0.13469169  0.63491958  0.58664926    -0.73300
O396        O  0.15942681  0.61564255  0.63457317    -0.74100
O397        O  0.11555708  0.61508364  0.58444993    -0.73400
O398        O  0.15873480  0.63820234  0.61852889    -0.73900
O399        O  0.12812043  0.66333422  0.61514503    -0.73800
O400        O  0.10943380  0.66155569  0.63562322    -0.73600
C401        C  0.11959141  0.62239349  0.67014069     0.78200
C402        C  0.12101303  0.57838844  0.62274143     0.78700
C403        C  0.07496633  0.62492930  0.61981181     0.77600
C404        C  0.12629473  0.62479278  0.57776786     0.78000
C405        C  0.16679866  0.62767804  0.62720399     0.79100
C406        C  0.11840237  0.67015808  0.62565937     0.78200
N407        N  0.94985598  0.62261160  0.62474211    -0.02400
C408        C  0.93906532  0.63231658  0.63344239     0.00200
C409        C  0.92299278  0.62614543  0.63185532    -0.22700
C410        C  0.92398357  0.61218957  0.62188088    -0.22900
C411        C  0.94063477  0.61026409  0.61769648     0.00100
H412        H  0.91177788  0.63113876  0.63752149     0.13800
H413        H  0.91367384  0.60430995  0.61806521     0.13900
N414        N  0.13070619  0.79491326  0.62934046    -0.02400
C415        C  0.14106253  0.80443253  0.61980045     0.00200
C416        C  0.14003669  0.82094878  0.62458270    -0.22700
C417        C  0.12861692  0.82161072  0.63746393    -0.22900
C418        C  0.12307076  0.80546999  0.64014567     0.00100
H419        H  0.14673859  0.83139404  0.61916422     0.13800
H420        H  0.12460208  0.83270492  0.64401678     0.13900
N421        N  0.13204296  0.61732249  0.45222545    -0.02400
C422        C  0.14114058  0.62595362  0.44073221     0.00200
C423        C  0.13810775  0.61986222  0.42490245    -0.22700
C424        C  0.12673082  0.60706441  0.42668926    -0.22900
C425        C  0.12315417  0.60575974  0.44355440     0.00100
H426        H  0.14347794  0.62433587  0.41330983     0.13800
H427        H  0.12144028  0.59964444  0.41673086     0.13900
N428        N  0.12700374  0.63032401  0.79577153    -0.02400
C429        C  0.13577331  0.62092770  0.80680946     0.00200
C430        C  0.13280517  0.62639155  0.82290667    -0.22700
C431        C  0.12186590  0.63957327  0.82170510    -0.22900
C432        C  0.11846683  0.64172878  0.80491045     0.00100
H433        H  0.13808005  0.62136545  0.83430252     0.13800
H434        H  0.11684182  0.64673823  0.83197857     0.13900
N435        N  0.12229589  0.45280270  0.63177597    -0.02400
C436        C  0.13271845  0.44311316  0.64100099     0.00200
C437        C  0.12844975  0.42648288  0.63936370    -0.22700
C438        C  0.11485213  0.42583887  0.62896398    -0.22900
C439        C  0.11135067  0.44210582  0.62442856     0.00100
H440        H  0.13443256  0.41592887  0.64535705     0.13800
H441        H  0.10825423  0.41475128  0.62511687     0.13900
N442        N  0.29223037  0.62744601  0.62866086    -0.02400
C443        C  0.30259709  0.61875457  0.63885074     0.00200
C444        C  0.31906903  0.62198752  0.63468796    -0.22700
C445        C  0.31884187  0.63292664  0.62142135    -0.22900
C446        C  0.30223753  0.63604679  0.61794865     0.00100
H447        H  0.33006341  0.61663950  0.64043322     0.13800
H448        H  0.32959593  0.63789795  0.61487783     0.13900
Zn449      Zn  0.97399788  0.74468037  0.74193548     1.49700
Zn450      Zn  0.00257006  0.74293154  0.76965521     1.49400
Zn451      Zn  0.01149077  0.73614852  0.73121565     1.49100
Zn452      Zn  0.00283264  0.77280898  0.74319250     1.49500
O453        O  0.99764232  0.74913768  0.74653662    -1.83100
O454        O  0.96222546  0.73529351  0.76231376    -0.73700
O455        O  0.02206340  0.72697428  0.77031480    -0.73500
O456        O  0.99741684  0.72281290  0.71519215    -0.73000
O457        O  0.98242115  0.73266584  0.78114594    -0.73700
O458        O  0.97149846  0.72777737  0.72330540    -0.73300
O459        O  0.02683781  0.72072571  0.74367397    -0.73900
O460        O  0.02072344  0.77648829  0.72563726    -0.73300
O461        O  0.00894256  0.76307378  0.78325245    -0.74100
O462        O  0.02679492  0.75086905  0.71782299    -0.73400
O463        O  0.01050293  0.78349758  0.76461627    -0.73900
O464        O  0.98242846  0.78510674  0.73581956    -0.73800
O465        O  0.96226200  0.76598004  0.73500299    -0.73600
C466        C  0.96719786  0.73099118  0.77680255     0.78200
C467        C  0.03017727  0.71912230  0.75911898     0.78700
C468        C  0.98176623  0.72039573  0.71366407     0.77600
C469        C  0.02926973  0.76650238  0.71674874     0.78000
C470        C  0.01190996  0.77824587  0.77956759     0.79100
C471        C  0.96732487  0.78096427  0.73309300     0.78200
Zn472      Zn  0.85998059  0.88861112  0.85920963     1.49700
Zn473      Zn  0.88821608  0.88875523  0.88711512     1.49400
Zn474      Zn  0.85976579  0.86008290  0.88709228     1.49100
Zn475      Zn  0.88822798  0.86043876  0.85953005     1.49500
O476        O  0.87400447  0.87450980  0.87330462    -1.83100
O477        O  0.86418173  0.91300380  0.86337471    -0.73700
O478        O  0.88331250  0.88434505  0.91125482    -0.73500
O479        O  0.83531919  0.86468863  0.88310672    -0.73000
O480        O  0.88437598  0.91327797  0.88230215    -0.73700
O481        O  0.83554672  0.88399763  0.86308144    -0.73300
O482        O  0.86472892  0.86367921  0.91129565    -0.73900
O483        O  0.88419284  0.83615297  0.86367087    -0.73300
O484        O  0.91279678  0.88390080  0.88349476    -0.74100
O485        O  0.86363767  0.83569614  0.88229746    -0.73400
O486        O  0.91261436  0.86505300  0.86334805    -0.73900
O487        O  0.88335670  0.86399180  0.83547856    -0.73800
O488        O  0.86463878  0.88426317  0.83501005    -0.73600
C489        C  0.87435929  0.92095153  0.87262786     0.78200
C490        C  0.87420376  0.87382035  0.91901557     0.78700
C491        C  0.82773624  0.87428537  0.87298117     0.77600
C492        C  0.87385062  0.82818740  0.87274842     0.78000
C493        C  0.92056620  0.87434694  0.87346838     0.79100
C494        C  0.87395654  0.87389470  0.82745737     0.78200
N495        N  0.87992728  0.87658393  0.04427530    -0.02400
C496        C  0.86963446  0.86788133  0.05474352     0.00200
C497        C  0.87351160  0.87172080  0.07112528    -0.22700
C498        C  0.88654164  0.88302481  0.07068548    -0.22900
C499        C  0.89028090  0.88588967  0.05404816     0.00100
H500        H  0.86749647  0.86685054  0.08223599     0.13800
H501        H  0.89258957  0.88862541  0.08138390     0.13900
N502        N  0.87432869  0.87534653  0.70190694    -0.02400
C503        C  0.86385764  0.88423676  0.69196293     0.00200
C504        C  0.86783369  0.88154132  0.67536848    -0.22700
C505        C  0.88120547  0.87077916  0.67512801    -0.22900
C506        C  0.88496583  0.86714935  0.69157883     0.00100
H507        H  0.86174237  0.88696165  0.66456565     0.13800
H508        H  0.88747741  0.86604567  0.66412319     0.13900
N509        N  0.87209636  0.70259946  0.87086606    -0.02400
C510        C  0.86299327  0.69312903  0.88173047     0.00200
C511        C  0.86552767  0.67639037  0.87851435    -0.22700
C512        C  0.87644007  0.67550999  0.86525030    -0.22900
C513        C  0.88040066  0.69173592  0.86080375     0.00100
H514        H  0.86003265  0.66594263  0.88509225     0.13800
H515        H  0.88110274  0.66423497  0.85957095     0.13900
N516        N  0.70482702  0.88147992  0.87726763    -0.02400
C517        C  0.69678605  0.89580192  0.87233131     0.00200
C518        C  0.68274755  0.89858741  0.88194061    -0.22700
C519        C  0.68205008  0.88614214  0.89357356    -0.22900
C520        C  0.69569743  0.87608577  0.89081363     0.00100
H521        H  0.67431492  0.90911668  0.88104135     0.13800
H522        H  0.67304966  0.88502412  0.90364892     0.13900
N523        N  0.04677669  0.87453348  0.86915911    -0.02400
C524        C  0.05693745  0.88572181  0.87693222     0.00200
C525        C  0.07341907  0.88262961  0.87272980    -0.22700
C526        C  0.07343233  0.86905427  0.86227165    -0.22900
C527        C  0.05695455  0.86431255  0.86024334     0.00100
H528        H  0.08433128  0.88941718  0.87702185     0.13800
H529        H  0.08433739  0.86321645  0.85675751     0.13900
N530        N  0.88083376  0.04669238  0.86804217    -0.02400
C531        C  0.87279806  0.05727907  0.85746957     0.00200
C532        C  0.87730120  0.07357438  0.86089764    -0.22700
C533        C  0.88842492  0.07302015  0.87398063    -0.22900
C534        C  0.89043497  0.05639660  0.87814570     0.00100
H535        H  0.87293102  0.08469927  0.85456210     0.13800
H536        H  0.89446808  0.08360741  0.87980638     0.13900
Zn537      Zn  0.64047782  0.10756739  0.63921821     1.49700
Zn538      Zn  0.61153334  0.13508462  0.63954303     1.49400
Zn539      Zn  0.63939491  0.13542564  0.61124331     1.49100
Zn540      Zn  0.61160277  0.10693542  0.61155982     1.49500
O541        O  0.62569640  0.12117959  0.62544775    -1.83100
O542        O  0.63666939  0.11230034  0.66343399    -0.73700
O543        O  0.61426373  0.15960884  0.63361075    -0.73500
O544        O  0.66375879  0.13183350  0.61491545    -0.73000
O545        O  0.61695649  0.13167329  0.66391410    -0.73700
O546        O  0.66464978  0.11276622  0.63479041    -0.73300
O547        O  0.63454366  0.15949707  0.61502132    -0.73900
O548        O  0.61645864  0.11049137  0.58713732    -0.73300
O549        O  0.58727890  0.12911364  0.63643515    -0.74100
O550        O  0.63523102  0.13095932  0.58716437    -0.73400
O551        O  0.58709188  0.11143022  0.61536147    -0.73900
O552        O  0.61564996  0.08280088  0.61695180    -0.73800
O553        O  0.63643118  0.08294143  0.63538613    -0.73600
C554        C  0.62711148  0.12206778  0.67146834     0.78200
C555        C  0.62403799  0.16748538  0.62376018     0.78700
C556        C  0.67208606  0.12261025  0.62474108     0.77600
C557        C  0.62601984  0.12063760  0.57942965     0.78000
C558        C  0.57926369  0.12013495  0.62607376     0.79100
C559        C  0.62585997  0.07515267  0.62641089     0.78200
N560        N  0.61957928  0.94961600  0.63005168    -0.02400
C561        C  0.60825446  0.93911504  0.62285504     0.00200
C562        C  0.61220293  0.92278110  0.62679398    -0.22700
C563        C  0.62640028  0.92321576  0.63644048    -0.22900
C564        C  0.63069875  0.93981053  0.63839924     0.00100
H565        H  0.60551619  0.91166300  0.62295351     0.13800
H566        H  0.63286120  0.91250112  0.64159696     0.13900
N567        N  0.62209253  0.12286412  0.45409530    -0.02400
C568        C  0.61324727  0.11265666  0.44380307     0.00200
C569        C  0.61455268  0.11819668  0.42749156    -0.22700
C570        C  0.62431287  0.13232224  0.42775570    -0.22900
C571        C  0.62889178  0.13492389  0.44419423     0.00100
H572        H  0.60881514  0.11266601  0.41656409     0.13800
H573        H  0.62783799  0.13984359  0.41703983     0.13900
N574        N  0.62132924  0.11890612  0.79698019    -0.02400
C575        C  0.62867896  0.10783626  0.80753577     0.00200
C576        C  0.62357869  0.11083161  0.82375626    -0.22700
C577        C  0.61282077  0.12418275  0.82316522    -0.22900
C578        C  0.61158260  0.12890557  0.80658914     0.00100
H579        H  0.62737153  0.10409494  0.83486330     0.13800
H580        H  0.60653167  0.12982665  0.83371139     0.13900
N581        N  0.45289651  0.12393032  0.62667328    -0.02400
C582        C  0.44233880  0.11449169  0.61736030     0.00200
C583        C  0.42599936  0.11926077  0.62008159    -0.22700
C584        C  0.42650542  0.13203562  0.63151640    -0.22900
C585        C  0.44313986  0.13461997  0.63548311     0.00100
H586        H  0.41490940  0.11393247  0.61445073     0.13800
H587        H  0.41583124  0.13858920  0.63660906     0.13900
N588        N  0.79777027  0.12324370  0.61666778    -0.02400
C589        C  0.80763547  0.13321080  0.60705093     0.00200
C590        C  0.82420756  0.12883472  0.60908107    -0.22700
C591        C  0.82450992  0.11577628  0.62031885    -0.22900
C592        C  0.80811627  0.11256909  0.62481165     0.00100
H593        H  0.83490689  0.13452854  0.60305334     0.13800
H594        H  0.83552893  0.10937097  0.62480933     0.13900
N595        N  0.61259188  0.29264433  0.61155528    -0.02400
C596        C  0.62066087  0.30287835  0.60069802     0.00200
C597        C  0.61647052  0.31931341  0.60379304    -0.22700
C598        C  0.60554307  0.31915519  0.61713963    -0.22900
C599        C  0.60349780  0.30264192  0.62168512     0.00100
H600        H  0.62135955  0.33022305  0.59752111     0.13800
H601        H  0.60016244  0.32987878  0.62319024     0.13900
Zn602      Zn  0.73637862  0.01674099  0.73266374     1.49700
Zn603      Zn  0.77427604  0.00653408  0.74117752     1.49400
Zn604      Zn  0.74778723  0.00895004  0.77051202     1.49100
Zn605      Zn  0.74468861  0.97933715  0.74398226     1.49500
O606        O  0.75075408  0.00289940  0.74700613    -1.83100
O607        O  0.75042168  0.03083120  0.71685807    -0.73700
O608        O  0.78774161  0.01485295  0.76087851    -0.73500
O609        O  0.72925083  0.02567135  0.77283090    -0.73000
O610        O  0.77643876  0.02373188  0.72282258    -0.73700
O611        O  0.72147845  0.03159519  0.74677232    -0.73300
O612        O  0.76906446  0.01747874  0.78122342    -0.73900
O613        O  0.73576971  0.96935430  0.76558522    -0.73300
O614        O  0.78492632  0.98495598  0.73366592    -0.74100
O615        O  0.74067829  0.98921510  0.78412150    -0.73400
O616        O  0.76503756  0.96596145  0.73740517    -0.73900
O617        O  0.72728660  0.97647240  0.72565225    -0.73800
O618        O  0.72103977  0.00247503  0.71831920    -0.73600
C619        C  0.76609199  0.03225764  0.71428538     0.78200
C620        C  0.78400647  0.01864891  0.77585224     0.78700
C621        C  0.71988787  0.03331556  0.76251835     0.77600
C622        C  0.73572139  0.97456952  0.78061934     0.78000
C623        C  0.77996330  0.96983165  0.73336377     0.79100
C624        C  0.71900251  0.98678150  0.71680306     0.78200
Zn625      Zn  0.73298396  0.23585609  0.50928821     1.49700
Zn626      Zn  0.74155242  0.27387314  0.50076129     1.49400
Zn627      Zn  0.77010594  0.24596967  0.49891658     1.49100
Zn628      Zn  0.74035540  0.24684353  0.47176951     1.49500
O629        O  0.74637783  0.25066316  0.49514761    -1.83100
O630        O  0.71670289  0.24874702  0.52312261    -0.73700
O631        O  0.76183054  0.28532492  0.51025395    -0.73500
O632        O  0.77296543  0.22759094  0.51626133    -0.73000
O633        O  0.72305846  0.27513232  0.51769609    -0.73700
O634        O  0.74715833  0.22198642  0.52465362    -0.73300
O635        O  0.78196705  0.26647940  0.50813279    -0.73900
O636        O  0.75989540  0.23717838  0.45929767    -0.73300
O637        O  0.73399672  0.28696346  0.48054198    -0.74100
O638        O  0.78106401  0.23824319  0.47730845    -0.73400
O639        O  0.73365080  0.26822544  0.46024121    -0.73900
O640        O  0.72115225  0.23052689  0.46975340    -0.73800
O641        O  0.71891657  0.22046557  0.49556578    -0.73600
C642        C  0.71415445  0.26424472  0.52517219     0.78200
C643        C  0.77697612  0.28098216  0.51233274     0.78700
C644        C  0.76283396  0.21963183  0.52569405     0.77600
C645        C  0.77519732  0.23481264  0.46289780     0.78000
C646        C  0.73147121  0.28309298  0.46533764     0.79100
C647        C  0.71466720  0.22048131  0.48028024     0.78200
Zn648      Zn  0.38963176  0.88944370  0.38998366     1.49700
Zn649      Zn  0.36172808  0.86086321  0.38933101     1.49400
Zn650      Zn  0.36122620  0.89071610  0.36254653     1.49100
Zn651      Zn  0.38902933  0.86196793  0.36083454     1.49500
O652        O  0.37541048  0.87575360  0.37564319    -1.83100
O653        O  0.38474220  0.88500982  0.41431009    -0.73700
O654        O  0.33734752  0.86499836  0.38529610    -0.73500
O655        O  0.36541041  0.91493010  0.36817627    -0.73000
O656        O  0.36574989  0.86471879  0.41367705    -0.73700
O657        O  0.38656903  0.91399450  0.38576408    -0.73300
O658        O  0.33683407  0.88568487  0.36676471    -0.73900
O659        O  0.38444132  0.86778920  0.33692862    -0.73300
O660        O  0.36619053  0.83665881  0.38444193    -0.74100
O661        O  0.36605213  0.88825096  0.33789831    -0.73400
O662        O  0.38426186  0.83724247  0.36358426    -0.73900
O663        O  0.41356281  0.86620500  0.36500244    -0.73800
O664        O  0.41373275  0.88493968  0.38545224    -0.73600
C665        C  0.37498518  0.87480999  0.42172324     0.78200
C666        C  0.32932676  0.87522066  0.37617496     0.78700
C667        C  0.37629567  0.92236212  0.37705757     0.77600
C668        C  0.37543853  0.87856136  0.32953413     0.78000
C669        C  0.37499396  0.82905821  0.37364465     0.79100
C670        C  0.42137096  0.87572515  0.37506493     0.78200
N671        N  0.20343971  0.87804491  0.37832927    -0.02400
C672        C  0.19298125  0.86947980  0.38870304     0.00200
C673        C  0.17660657  0.87400964  0.38562963    -0.22700
C674        C  0.17697355  0.88556713  0.37289290    -0.22900
C675        C  0.19356825  0.88788729  0.36863146     0.00100
H676        H  0.16557492  0.86925729  0.39180064     0.13800
H677        H  0.16629914  0.89159858  0.36734329     0.13900
N678        N  0.54699484  0.87707541  0.37536419    -0.02400
C679        C  0.55731450  0.88682196  0.38464953     0.00200
C680        C  0.57377152  0.88258947  0.38160600    -0.22700
C681        C  0.57353761  0.86983390  0.37010804    -0.22900
C682        C  0.55694795  0.86668097  0.36642373     0.00100
H683        H  0.58474922  0.88811440  0.38720868     0.13800
H684        H  0.58432256  0.86361692  0.36488917     0.13900
N685        N  0.36866299  0.87719395  0.54727335    -0.02400
C686        C  0.36008480  0.86652445  0.55739232     0.00200
C687        C  0.36196086  0.87124208  0.57387210    -0.22700
C688        C  0.37192685  0.88525559  0.57389760    -0.22900
C689        C  0.37602010  0.88864547  0.55743677     0.00100
H690        H  0.35655832  0.86517059  0.58474075     0.13800
H691        H  0.37593941  0.89214570  0.58482344     0.13900
N692        N  0.37354318  0.70290910  0.37174624    -0.02400
C693        C  0.36333947  0.69252553  0.38055818     0.00200
C694        C  0.36713038  0.67609616  0.37700049    -0.22700
C695        C  0.38012497  0.67638763  0.36571167    -0.22900
C696        C  0.38382477  0.69298095  0.36263981     0.00100
H697        H  0.36116683  0.66508877  0.38212999     0.13800
H698        H  0.38621641  0.66563896  0.36030807     0.13900
N699        N  0.37136037  0.86925909  0.20392847    -0.02400
C700        C  0.38084700  0.85932186  0.19402229     0.00200
C701        C  0.37550662  0.86038366  0.17764586    -0.22700
C702        C  0.36229510  0.87132064  0.17744610    -0.22900
C703        C  0.36001233  0.87660968  0.19370530     0.00100
H704        H  0.38070758  0.85393074  0.16698752     0.13800
H705        H  0.35520192  0.87512530  0.16658835     0.13900
N706        N  0.37916805  0.04845222  0.37382703    -0.02400
C707        C  0.38821852  0.05885823  0.38370740     0.00200
C708        C  0.38549577  0.07527412  0.37911740    -0.22700
C709        C  0.37436277  0.07494716  0.36594866    -0.22900
C710        C  0.37066102  0.05833179  0.36296465     0.00100
H711        H  0.39089813  0.08615622  0.38460945     0.13800
H712        H  0.36956937  0.08550659  0.35944930     0.13900
Zn713      Zn  0.23828157  0.01409937  0.23675338     1.49700
Zn714      Zn  0.24626520  0.97635747  0.24598522     1.49400
Zn715      Zn  0.27609600  0.00312474  0.24475700     1.49100
Zn716      Zn  0.24877791  0.00486275  0.27414646     1.49500
O717        O  0.25241911  0.99959878  0.25046423    -1.83100
O718        O  0.22234575  0.00100119  0.22238236    -0.73700
O719        O  0.26621662  0.96312760  0.23833326    -0.73500
O720        O  0.27831861  0.02113727  0.22700810    -0.73000
O721        O  0.22833413  0.97458094  0.22821430    -0.73700
O722        O  0.25234694  0.02847832  0.22169291    -0.73300
O723        O  0.28684400  0.98159015  0.23647867    -0.73900
O724        O  0.27004639  0.01342195  0.28491967    -0.73300
O725        O  0.23752945  0.96528958  0.26682408    -0.74100
O726        O  0.28916135  0.01119856  0.26492689    -0.73400
O727        O  0.24120422  0.98424922  0.28676742    -0.73900
O728        O  0.23057748  0.02234792  0.27690299    -0.73800
O729        O  0.22391559  0.02905735  0.25084593    -0.73600
C730        C  0.21991744  0.98546956  0.22027661     0.78200
C731        C  0.28135051  0.96670703  0.23490789     0.78700
C732        C  0.26793541  0.03020015  0.21907311     0.77600
C733        C  0.28507494  0.01499275  0.27983575     0.78000
C734        C  0.23671009  0.96975116  0.28204286     0.79100
C735        C  0.22191710  0.03073970  0.26651386     0.78200
Zn736      Zn  0.11098755  0.11414823  0.13448897     1.49700
Zn737      Zn  0.14174302  0.13926122  0.13522481     1.49400
Zn738      Zn  0.13960624  0.11147508  0.10699974     1.49100
Zn739      Zn  0.11479879  0.14276800  0.10666505     1.49500
O740        O  0.12675123  0.12686462  0.12076775    -1.83100
O741        O  0.11664989  0.11593678  0.15881299    -0.73700
O742        O  0.16554373  0.13500375  0.12913550    -0.73500
O743        O  0.13405306  0.08757550  0.11289526    -0.73000
O744        O  0.13895184  0.13250535  0.15903850    -0.73700
O745        O  0.11184087  0.08965615  0.12948765    -0.73300
O746        O  0.16448906  0.11497114  0.11006773    -0.73900
O747        O  0.11884907  0.13822693  0.08236392    -0.73300
O748        O  0.13755550  0.16389133  0.13401276    -0.74100
O749        O  0.13431832  0.11521467  0.08265063    -0.73400
O750        O  0.12080487  0.16666373  0.11205754    -0.73900
O751        O  0.09013724  0.14073071  0.11045204    -0.73800
O752        O  0.08754786  0.12208425  0.13094774    -0.73600
C753        C  0.12831570  0.12340464  0.16656969     0.78200
C754        C  0.17278858  0.12494397  0.11925574     0.78700
C755        C  0.12237117  0.08093664  0.12148118     0.77600
C756        C  0.12637533  0.12651311  0.07477816     0.78000
C757        C  0.12934309  0.17292404  0.12389335     0.79100
C758        C  0.08122073  0.13238250  0.12065295     0.78200
N759        N  0.13755711  0.12092464  0.94996138    -0.02400
C760        C  0.13052506  0.10995139  0.93910871     0.00200
C761        C  0.13659745  0.11283908  0.92316818    -0.22700
C762        C  0.14763134  0.12603081  0.92426811    -0.22900
C763        C  0.14798211  0.13079257  0.94084142     0.00100
H764        H  0.13324818  0.10616119  0.91191112     0.13800
H765        H  0.15458807  0.13161688  0.91405809     0.13900
N766        N  0.12765166  0.95615117  0.12192799    -0.02400
C767        C  0.13852595  0.94722529  0.13138529     0.00200
C768        C  0.13775217  0.93056789  0.12693013    -0.22700
C769        C  0.12600117  0.92922844  0.11443738    -0.22900
C770        C  0.11996985  0.94511454  0.11161919     0.00100
H771        H  0.14491458  0.92043087  0.13228523     0.13800
H772        H  0.12225311  0.91790505  0.10811527     0.13900
N773        N  0.95629685  0.13076185  0.11771223    -0.02400
C774        C  0.94463966  0.13874725  0.12705386     0.00200
C775        C  0.92879224  0.13397577  0.12211755    -0.22700
C776        C  0.93079719  0.12264521  0.10934815    -0.22900
C777        C  0.94780714  0.12088579  0.10687148     0.00100
H778        H  0.91703861  0.13820989  0.12730906     0.13800
H779        H  0.92091657  0.11629263  0.10264609     0.13900
N780        N  0.12073842  0.11905646  0.29115419    -0.02400
C781        C  0.11011942  0.12872037  0.30020871     0.00200
C782        C  0.11206108  0.12530326  0.31704039    -0.22700
C783        C  0.12413750  0.11316017  0.31835724    -0.22900
C784        C  0.12926659  0.10949391  0.30229938     0.00100
H785        H  0.10532899  0.13099431  0.32728251     0.13800
H786        H  0.12868049  0.10757606  0.32981845     0.13900
N787        N  0.12444936  0.29740399  0.12719294    -0.02400
C788        C  0.11483172  0.30844435  0.13572285     0.00200
C789        C  0.11688169  0.32427561  0.12914826    -0.22700
C790        C  0.12807214  0.32291666  0.11614130    -0.22900
C791        C  0.13259183  0.30629810  0.11518060     0.00100
H792        H  0.11079339  0.33558402  0.13328474     0.13800
H793        H  0.13252887  0.33299176  0.10828467     0.13900
N794        N  0.29763445  0.13160713  0.13156122    -0.02400
C795        C  0.30803317  0.12302610  0.14186286     0.00200
C796        C  0.32398276  0.12962745  0.14104958    -0.22700
C797        C  0.32341592  0.14271280  0.12994046    -0.22900
C798        C  0.30715426  0.14364788  0.12421107     0.00100
H799        H  0.33489859  0.12534601  0.14780739     0.13800
H800        H  0.33380132  0.15060875  0.12627746     0.13900
Zn801      Zn  0.88765483  0.38426149  0.39026617     1.49700
Zn802      Zn  0.85901636  0.38629533  0.36267527     1.49400
Zn803      Zn  0.88624348  0.35747472  0.36083237     1.49100
Zn804      Zn  0.85840729  0.35715242  0.38964928     1.49500
O805        O  0.87284913  0.37125675  0.37584849    -1.83100
O806        O  0.88438165  0.40880767  0.38689928    -0.73700
O807        O  0.86177250  0.38232511  0.33808092    -0.73500
O808        O  0.91081069  0.36300415  0.36293133    -0.73000
O809        O  0.86499875  0.41020480  0.36715064    -0.73700
O810        O  0.91171272  0.38000741  0.38485246    -0.73300
O811        O  0.87989258  0.36149726  0.33683744    -0.73900
O812        O  0.86211349  0.33289315  0.38442862    -0.73300
O813        O  0.83472486  0.38326390  0.36817290    -0.74100
O814        O  0.88264855  0.33299876  0.36570356    -0.73400
O815        O  0.83394195  0.36306353  0.38697601    -0.73900
O816        O  0.86358184  0.36023645  0.41388115    -0.73800
O817        O  0.88354549  0.37946709  0.41450348    -0.73600
C818        C  0.87517650  0.41723083  0.37711516     0.78200
C819        C  0.87029595  0.37192667  0.32968461     0.78700
C820        C  0.91891499  0.37195266  0.37325545     0.77600
C821        C  0.87237366  0.32517193  0.37506394     0.78000
C822        C  0.82647770  0.37390193  0.37806766     0.79100
C823        C  0.87350150  0.36962666  0.42196277     0.78200
N824        N  0.86922648  0.37387456  0.20399037    -0.02400
C825        C  0.86037170  0.38327557  0.19295604     0.00200
C826        C  0.86531294  0.37965496  0.17681743    -0.22700
C827        C  0.87765343  0.36779584  0.17795327    -0.22900
C828        C  0.87982747  0.36437054  0.19475033     0.00100
H829        H  0.86056888  0.38518199  0.16541537     0.13800
H830        H  0.88434824  0.36225967  0.16760756     0.13900
N831        N  0.86758711  0.19970536  0.36947913    -0.02400
C832        C  0.85621160  0.18958027  0.37711166     0.00200
C833        C  0.85881494  0.17320264  0.37242627    -0.22700
C834        C  0.87219524  0.17323922  0.36159007    -0.22900
C835        C  0.87735409  0.18963680  0.35994346     0.00100
H836        H  0.85172087  0.16240207  0.37642434     0.13800
H837        H  0.87754149  0.16246267  0.35549380     0.13900
N838        N  0.04166475  0.37563568  0.37340079    -0.02400
C839        C  0.05001842  0.36220207  0.36683515     0.00200
C840        C  0.06444636  0.35891028  0.37560448    -0.22700
C841        C  0.06513782  0.37007659  0.38836735    -0.22900
C842        C  0.05111287  0.37991773  0.38710209     0.00100
H843        H  0.07316158  0.34882957  0.37336207     0.13800
H844        H  0.07449963  0.37049997  0.39813826     0.13900
N845        N  0.87250105  0.37131980  0.54745253    -0.02400
C846        C  0.86195487  0.36325044  0.55810738     0.00200
C847        C  0.86652754  0.36651043  0.57441862    -0.22700
C848        C  0.88028924  0.37686837  0.57374083    -0.22900
C849        C  0.88372553  0.37973004  0.55703102     0.00100
H850        H  0.86051928  0.36181115  0.58563346     0.13800
H851        H  0.88700390  0.38191573  0.58434688     0.13900
N852        N  0.88169818  0.54276036  0.37415136    -0.02400
C853        C  0.87352855  0.55307467  0.36338311     0.00200
C854        C  0.87821784  0.56944060  0.36624374    -0.22700
C855        C  0.88940838  0.56926659  0.37923489    -0.22900
C856        C  0.89138813  0.55278412  0.38387421     0.00100
H857        H  0.87374485  0.58040268  0.35972677     0.13800
H858        H  0.89545901  0.58001122  0.38472464     0.13900
N859        N  0.70058902  0.38189221  0.37556281    -0.02400
C860        C  0.69041228  0.39205907  0.36663014     0.00200
C861        C  0.67386817  0.38838183  0.37006037    -0.22700
C862        C  0.67385756  0.37549914  0.38147909    -0.22900
C863        C  0.69040447  0.37174421  0.38463418     0.00100
H864        H  0.66298391  0.39429823  0.36467814     0.13800
H865        H  0.66298920  0.36944957  0.38679829     0.13900
Zn866      Zn  0.98331835  0.26280884  0.26283880     1.49700
Zn867      Zn  0.99081140  0.22567275  0.25120349     1.49400
Zn868      Zn  0.99368957  0.25602759  0.22486076     1.49100
Zn869      Zn  0.02089290  0.25209567  0.25388284     1.49500
O870        O  0.99723460  0.24911581  0.24815133    -1.83100
O871        O  0.96955550  0.24865318  0.27878248    -0.73700
O872        O  0.98206734  0.21617068  0.22963493    -0.73500
O873        O  0.97576396  0.27372488  0.22319769    -0.73000
O874        O  0.97283934  0.22311669  0.26904319    -0.73700
O875        O  0.96726286  0.27687686  0.24941362    -0.73300
O876        O  0.98523969  0.23671862  0.21122320    -0.73900
O877        O  0.03423397  0.26053863  0.23404056    -0.73300
O878        O  0.01077828  0.21167052  0.25816261    -0.74100
O879        O  0.01520263  0.26445217  0.21418819    -0.73400
O880        O  0.03115714  0.23029194  0.26173480    -0.73900
O881        O  0.02357234  0.26971526  0.27163950    -0.73800
O882        O  0.99765413  0.27833587  0.27647229    -0.73600
C883        C  0.96606424  0.23314801  0.27934789     0.78200
C884        C  0.98088212  0.22184915  0.21481054     0.78700
C885        C  0.96599095  0.28024407  0.23391059     0.77600
C886        C  0.03023347  0.26520296  0.21937696     0.78000
C887        C  0.02575118  0.21531433  0.26219055     0.79100
C888        C  0.01333567  0.27939793  0.27895908     0.78200
C889        C  0.01878979  0.32063828  0.30193154    -0.04400
C890        C  0.03030586  0.31614995  0.31443800     0.09700
C891        C  0.03717711  0.29999502  0.31459544    -0.01800
C892        C  0.03193952  0.28806334  0.30280188    -0.00100
C893        C  0.01976463  0.29224579  0.29070934    -0.03700
C894        C  0.01359750  0.30877196  0.29002639     0.03300
C895        C  0.03507712  0.32833713  0.32768794     0.10200
C896        C  0.04965564  0.29568003  0.32697940     0.36100
C897        C  0.00247412  0.31380819  0.27664877     0.39500
C898        C  0.02564560  0.32922377  0.34253694    -0.04000
C899        C  0.03052909  0.34013967  0.35542162     0.03100
C900        C  0.04452819  0.35073055  0.35326953    -0.03600
C901        C  0.05412479  0.34958234  0.33845428     0.00100
C902        C  0.04936683  0.33845690  0.32569941    -0.02400
C903        C  0.01098831  0.31871891  0.34459064     0.36800
C904        C  0.06856852  0.36030908  0.33607924     0.40400
C905        C  0.02122209  0.34021795  0.37092339     0.39600
C906        C  0.05914738  0.33736970  0.31048853     0.36500
C907        C  0.01245645  0.33754799  0.30122777     0.37200
C908        C  0.03889333  0.27140326  0.30342918     0.40400
N909        N  0.01350484  0.33999058  0.38313083    -0.37600
N910        N  0.99928905  0.31034879  0.34620139    -0.39200
N911        N  0.08005729  0.36890732  0.33417935    -0.37000
N912        N  0.06692375  0.33643470  0.29833701    -0.39400
N913        N  0.05967327  0.29230552  0.33681297    -0.39100
N914        N  0.04460165  0.25817716  0.30391688    -0.36800
N915        N  0.99371592  0.31785548  0.26590165    -0.37800
N916        N  0.00747390  0.35106219  0.30057178    -0.39500
C917        C  0.94239822  0.20340693  0.30896407    -0.04400
C918        C  0.92995896  0.21390759  0.31553124     0.09700
C919        C  0.92966136  0.23084608  0.31086047    -0.01800
C920        C  0.94135822  0.23719330  0.29918886    -0.00100
C921        C  0.95382019  0.22663426  0.29219068    -0.03700
C922        C  0.95436810  0.20969457  0.29755121     0.03300
C923        C  0.91684023  0.20703585  0.32709720     0.10200
C924        C  0.91711645  0.24173340  0.31805955     0.36100
C925        C  0.96748741  0.19863719  0.29182470     0.39500
C926        C  0.91820892  0.20925082  0.34451459    -0.04000
C927        C  0.90557381  0.20320470  0.35530718     0.03100
C928        C  0.89127782  0.19520130  0.34873177    -0.03600
C929        C  0.89043298  0.19213624  0.33134055     0.00100
C930        C  0.90304171  0.19823092  0.32057819    -0.02400
C931        C  0.93279345  0.21755245  0.35132366     0.36800
C932        C  0.87646061  0.18290946  0.32439973     0.40400
C933        C  0.90797348  0.20413346  0.37320119     0.39600
C934        C  0.90178887  0.19556220  0.30271500     0.36500
C935        C  0.94286015  0.18602801  0.31404897     0.37200
C936        C  0.94009499  0.25457468  0.29428708     0.40400
N937        N  0.91033284  0.20469089  0.38743652    -0.37600
N938        N  0.94444260  0.22416610  0.35675015    -0.39200
N939        N  0.86531188  0.17557546  0.31884472    -0.37000
N940        N  0.90085025  0.19341713  0.28846401    -0.39400
N941        N  0.90714962  0.25035212  0.32393062    -0.39100
N942        N  0.93899733  0.26848411  0.29056026    -0.36800
N943        N  0.97793500  0.18977060  0.28731560    -0.37800
N944        N  0.94316615  0.17216543  0.31808923    -0.39500
C945        C  0.90242192  0.32288379  0.20134390    -0.04400
C946        C  0.91458166  0.32725201  0.21327479     0.09700
C947        C  0.91527350  0.34373049  0.21932482    -0.01800
C948        C  0.90433000  0.35597640  0.21299783    -0.00100
C949        C  0.89180670  0.35160441  0.20132357    -0.03700
C950        C  0.89107880  0.33495374  0.19539704     0.03300
C951        C  0.92763396  0.31489470  0.21839900     0.10200
C952        C  0.92759751  0.34811867  0.23184846     0.36100
C953        C  0.87875333  0.33014739  0.18303005     0.39500
C954        C  0.94384597  0.31598421  0.21151034    -0.04000
C955        C  0.95639136  0.30472827  0.21654316     0.03100
C956        C  0.95270962  0.29196472  0.22824145    -0.03600
C957        C  0.93622015  0.29045986  0.23455150     0.00100
C958        C  0.92385390  0.30210610  0.22993276    -0.02400
C959        C  0.94756823  0.32874657  0.19915958     0.36800
C960        C  0.93167103  0.27637271  0.24503580     0.40400
C961        C  0.97316946  0.30659392  0.20990405     0.39600
C962        C  0.90721948  0.30098478  0.23706944     0.36500
C963        C  0.90179433  0.30596626  0.19498835     0.37200
C964        C  0.90726434  0.37325435  0.21731844     0.40400
N965        N  0.98653490  0.30810388  0.20456748    -0.37600
N966        N  0.95043600  0.33894926  0.18930838    -0.39200
N967        N  0.92796528  0.26499390  0.25316941    -0.37000
N968        N  0.89394944  0.30012176  0.24276824    -0.39400
N969        N  0.93745068  0.35150752  0.24184757    -0.39100
N970        N  0.91033848  0.38691682  0.22079149    -0.36800
N971        N  0.86900112  0.32628287  0.17310233    -0.37800
N972        N  0.90131008  0.29244594  0.18998999    -0.39500
C973        C  0.87767249  0.46222421  0.39204729    -0.04400
C974        C  0.87847805  0.47087406  0.37670255     0.09700
C975        C  0.87859734  0.46191642  0.36156674    -0.01800
C976        C  0.87797965  0.44437004  0.36175542    -0.00100
C977        C  0.87652606  0.43567641  0.37707901    -0.03700
C978        C  0.87646404  0.44467780  0.39225497     0.03300
C979        C  0.87934566  0.48948051  0.37642128     0.10200
C980        C  0.87934370  0.47080868  0.34577489     0.36100
C981        C  0.87470912  0.43597708  0.40807886     0.39500
C982        C  0.89456464  0.49756424  0.37273990    -0.04000
C983        C  0.89525585  0.51508599  0.37171904     0.03100
C984        C  0.88082100  0.52472839  0.37484808    -0.03600
C985        C  0.86561832  0.51655229  0.37872865     0.00100
C986        C  0.86486947  0.49899262  0.37938512    -0.02400
C987        C  0.90950296  0.48777328  0.36982293     0.36800
C988        C  0.85080360  0.52610372  0.38258677     0.40400
C989        C  0.91063283  0.52301022  0.36635548     0.39600
C990        C  0.84917981  0.49064159  0.38308176     0.36500
C991        C  0.87816215  0.47143838  0.40760930     0.37200
C992        C  0.87962778  0.43525549  0.34620082     0.40400
N993        N  0.92302474  0.52884305  0.36166999    -0.37600
N994        N  0.92138290  0.47993918  0.36745322    -0.39200
N995        N  0.83880670  0.53339071  0.38591799    -0.37000
N996        N  0.83670477  0.48393289  0.38607746    -0.39400
N997        N  0.87994955  0.47793299  0.33320178    -0.39100
N998        N  0.88109040  0.42793274  0.33385308    -0.36800
N999        N  0.87328668  0.42904454  0.42069929    -0.37800
N1000       N  0.87857503  0.47884323  0.41998628    -0.39500
C1001       C  0.86883810  0.38511373  0.50264403    -0.04400
C1002       C  0.87129436  0.36990357  0.49426898     0.09700
C1003       C  0.87380773  0.35511233  0.50339921    -0.01800
C1004       C  0.87432576  0.35558333  0.52093858    -0.00100
C1005       C  0.87195669  0.37083155  0.52944105    -0.03700
C1006       C  0.86906118  0.38557427  0.52019593     0.03300
C1007       C  0.87184495  0.36956317  0.47572450     0.10200
C1008       C  0.87608922  0.33945637  0.49465295     0.36100
C1009       C  0.86576249  0.40115399  0.52866422     0.39500
C1010       C  0.88733826  0.37060691  0.46743205    -0.04000
C1011       C  0.88797458  0.37040151  0.44986822     0.03100
C1012       C  0.87300917  0.36936476  0.44050032    -0.03600
C1013       C  0.85745179  0.36839663  0.44896758     0.00100
C1014       C  0.85693458  0.36832106  0.46653372    -0.02400
C1015       C  0.90261883  0.37191134  0.47708516     0.36800
C1016       C  0.84186843  0.36817214  0.43971474     0.40400
C1017       C  0.90409692  0.37086851  0.44156424     0.39600
C1018       C  0.84105843  0.36704369  0.47523577     0.36500
C1019       C  0.86611511  0.40028362  0.49312775     0.37200
C1020       C  0.87834575  0.34052377  0.53008367     0.40400
N1021       N  0.91699180  0.37126653  0.43501709    -0.37600
N1022       N  0.91473141  0.37294276  0.48488521    -0.39200
N1023       N  0.82944613  0.36802303  0.43233992    -0.37000
N1024       N  0.82842872  0.36600430  0.48221905    -0.39400
N1025       N  0.87788961  0.32700055  0.48762260    -0.39100
N1026       N  0.88190345  0.32836573  0.53701076    -0.36800
N1027       N  0.86287915  0.41371341  0.53512110    -0.37800
N1028       N  0.86392730  0.41235575  0.48550153    -0.39500
C1029       C  0.85662084  0.28029563  0.37611200    -0.04400
C1030       C  0.87167207  0.27130312  0.37529751     0.09700
C1031       C  0.88705226  0.27989159  0.37468178    -0.01800
C1032       C  0.88738456  0.29748955  0.37495831    -0.00100
C1033       C  0.87223788  0.30659814  0.37506935    -0.03700
C1034       C  0.85685404  0.29783020  0.37531000     0.03300
C1035       C  0.87114723  0.25275981  0.37385009     0.10200
C1036       C  0.90250206  0.27054953  0.37358070     0.36100
C1037       C  0.84122086  0.30668136  0.37336946     0.39500
C1038       C  0.86770561  0.24542679  0.35826579    -0.04000
C1039       C  0.86644291  0.22797733  0.35684281     0.03100
C1040       C  0.86888450  0.21766156  0.37097134    -0.03600
C1041       C  0.87249341  0.22509419  0.38657064     0.00100
C1042       C  0.87349633  0.24259724  0.38801042    -0.02400
C1043       C  0.86519062  0.25594847  0.34371211     0.36800
C1044       C  0.87569298  0.21481163  0.40109030     0.40400
C1045       C  0.86167424  0.22084369  0.34096450     0.39600
C1046       C  0.87680720  0.25023073  0.40407187     0.36500
C1047       C  0.84086187  0.27141327  0.37768013     0.37200
C1048       C  0.90333704  0.30612118  0.37540880     0.40400
N1049       N  0.85751781  0.21566265  0.32815349    -0.37600
N1050       N  0.86314847  0.26437791  0.33214902    -0.39200
N1051       N  0.87849011  0.20689736  0.41285370    -0.37000
N1052       N  0.87941613  0.25637700  0.41686616    -0.39400
N1053       N  0.91477879  0.26302629  0.37265523    -0.39100
N1054       N  0.91606992  0.31299007  0.37580137    -0.36800
N1055       N  0.82873344  0.31361984  0.37140816    -0.37800
N1056       N  0.82834304  0.26428680  0.37909619    -0.39500
C1057       C  0.88252163  0.37036559  0.28369665    -0.04400
C1058       C  0.86694010  0.37260815  0.27586591     0.09700
C1059       C  0.85238998  0.37440560  0.28559520    -0.01800
C1060       C  0.85341696  0.37409332  0.30317730    -0.00100
C1061       C  0.86909499  0.37204149  0.31113522    -0.03700
C1062       C  0.88365702  0.37018875  0.30124163     0.03300
C1063       C  0.86605396  0.37331362  0.25726838     0.10200
C1064       C  0.83636379  0.37652029  0.27743946     0.36100
C1065       C  0.89996076  0.36866567  0.30899110     0.39500
C1066       C  0.86200754  0.35889416  0.24810542    -0.04000
C1067       C  0.86277627  0.35916027  0.23053276     0.03100
C1068       C  0.86762244  0.37386997  0.22200053    -0.03600
C1069       C  0.87111602  0.38847068  0.23126351     0.00100
C1070       C  0.87028397  0.38817696  0.24882774    -0.02400
C1071       C  0.85716968  0.34374969  0.25682740     0.36800
C1072       C  0.87664499  0.40355824  0.22291791     0.40400
C1073       C  0.85814912  0.34436923  0.22126660     0.39600
C1074       C  0.87416209  0.40308206  0.25831916     0.36500
C1075       C  0.89742902  0.36828065  0.27359553     0.37200
C1076       C  0.83822741  0.37543480  0.31299355     0.40400
N1077       N  0.85423549  0.33246890  0.21410799    -0.37600
N1078       N  0.85323612  0.33170677  0.26381237    -0.39200
N1079       N  0.88133738  0.41571786  0.21663729    -0.37000
N1080       N  0.87727676  0.41494059  0.26592149    -0.39400
N1081       N  0.82359951  0.37814696  0.27088176    -0.39100
N1082       N  0.82611475  0.37651855  0.32082169    -0.36800
N1083       N  0.91299762  0.36742232  0.31508354    -0.37800
N1084       N  0.90928015  0.36663397  0.26549091    -0.39500
C1085       C  0.78269489  0.39275603  0.37427858    -0.04400
C1086       C  0.77250064  0.37902593  0.37835096     0.09700
C1087       C  0.77980483  0.36388088  0.38333923    -0.01800
C1088       C  0.79734688  0.36227828  0.38392702    -0.00100
C1089       C  0.80782918  0.37581707  0.37907243    -0.03700
C1090       C  0.80023647  0.39129471  0.37481517     0.03300
C1091       C  0.75394237  0.38051212  0.37742275     0.10200
C1092       C  0.76914164  0.34983902  0.38767833     0.36100
C1093       C  0.81029026  0.40607649  0.37165557     0.39500
C1094       C  0.74562746  0.37720161  0.36230822    -0.04000
C1095       C  0.72805530  0.37788379  0.36155335     0.03100
C1096       C  0.71867692  0.38210756  0.37591465    -0.03600
C1097       C  0.72716313  0.38602218  0.39087959     0.00100
C1098       C  0.74471086  0.38504905  0.39167189    -0.02400
C1099       C  0.75523109  0.37283400  0.34758135     0.36800
C1100       C  0.71794065  0.39160886  0.40537116     0.40400
C1101       C  0.71980209  0.37336164  0.34615467     0.39600
C1102       C  0.75333348  0.38869050  0.40716219     0.36500
C1103       C  0.77502238  0.40841790  0.36943717     0.37200
C1104       C  0.80429911  0.34664464  0.38974328     0.40400
N1105       N  0.71378625  0.36937280  0.33365497    -0.37600
N1106       N  0.76292008  0.36938711  0.33584756    -0.39200
N1107       N  0.71092012  0.39637069  0.41705331    -0.37000
N1108       N  0.76022654  0.39157343  0.41951610    -0.39400
N1109       N  0.76060592  0.33866400  0.39109179    -0.39100
N1110       N  0.80955189  0.33418324  0.39476768    -0.36800
N1111       N  0.81825619  0.41790691  0.36919574    -0.37800
N1112       N  0.76884426  0.42086124  0.36554991    -0.39500
C1113       C  0.96533334  0.36870697  0.38194427    -0.04400
C1114       C  0.97203542  0.37904345  0.36926495     0.09700
C1115       C  0.96116761  0.38690909  0.35781543    -0.01800
C1116       C  0.94379938  0.38410648  0.35880833    -0.00100
C1117       C  0.93718228  0.37369382  0.37143194    -0.03700
C1118       C  0.94795247  0.36602222  0.38300045     0.03300
C1119       C  0.99052349  0.38149874  0.36789762     0.10200
C1120       C  0.96782490  0.39820843  0.34526818     0.36100
C1121       C  0.94112700  0.35520168  0.39588190     0.39500
C1122       C  0.99953135  0.37452515  0.35445419    -0.04000
C1123       C  0.01700428  0.37651834  0.35375051     0.03100
C1124       C  0.02556241  0.38261202  0.36787442    -0.03600
C1125       C  0.01652331  0.39401920  0.37764960     0.00100
C1126       C  0.99902153  0.39236592  0.37886255    -0.02400
C1127       C  0.99097266  0.36535362  0.34144940     0.36800
C1128       C  0.02378984  0.41032749  0.38011866     0.40400
C1129       C  0.02513464  0.37681921  0.33761172     0.39600
C1130       C  0.98983141  0.40224489  0.39084893     0.36500
C1131       C  0.97623820  0.36093897  0.39407210     0.37200
C1132       C  0.93265544  0.39232082  0.34713883     0.40400
N1133       N  0.03129569  0.37749716  0.32454220    -0.37600
N1134       N  0.98402401  0.35802877  0.33113575    -0.39200
N1135       N  0.02966073  0.42348030  0.38124466    -0.37000
N1136       N  0.98242902  0.40999687  0.40050298    -0.39400
N1137       N  0.97313568  0.40720651  0.33524621    -0.39100
N1138       N  0.92373496  0.39888587  0.33787784    -0.36800
N1139       N  0.93569481  0.34651813  0.40611455    -0.37800
N1140       N  0.98463301  0.35470718  0.40401262    -0.39500
C1141       C  0.06090783  0.29534129  0.19888813    -0.04400
C1142       C  0.06750324  0.28543077  0.18593890     0.09700
C1143       C  0.06230408  0.26866948  0.18436213    -0.01800
C1144       C  0.05045133  0.26189516  0.19558626    -0.00100
C1145       C  0.04338612  0.27198246  0.20815426    -0.03700
C1146       C  0.04884937  0.28865016  0.20994561     0.03300
C1147       C  0.07978129  0.29266674  0.17375316     0.10200
C1148       C  0.06906075  0.25848762  0.17103725     0.36100
C1149       C  0.04201175  0.29891664  0.22316424     0.39500
C1150       C  0.09709819  0.29135738  0.17667139    -0.04000
C1151       C  0.10863255  0.29712527  0.16458425     0.03100
C1152       C  0.10289313  0.30414051  0.14944894    -0.03600
C1153       C  0.08556769  0.30688345  0.14731083     0.00100
C1154       C  0.07405689  0.30077744  0.15921856    -0.02400
C1155       C  0.10299605  0.28419573  0.19221532     0.36800
C1156       C  0.07949131  0.31567757  0.13268378     0.40400
C1157       C  0.12633258  0.29687986  0.16829016     0.39600
C1158       C  0.05626300  0.30255236  0.15639603     0.36500
C1159       C  0.06650776  0.31245057  0.20073166     0.37200
C1160       C  0.04595724  0.24440002  0.19457565     0.40400
N1161       N  0.14037308  0.29690267  0.17169098    -0.37600
N1162       N  0.10766963  0.27856643  0.20467279    -0.39200
N1163       N  0.07466810  0.32270715  0.12101865    -0.37000
N1164       N  0.04206085  0.30391911  0.15413244    -0.39400
N1165       N  0.07443184  0.25046667  0.16031969    -0.39100
N1166       N  0.04261205  0.23036738  0.19390652    -0.36800
N1167       N  0.03657187  0.30706675  0.23375154    -0.37800
N1168       N  0.07103407  0.32609229  0.20216519    -0.39500
C1169       C  0.09059934  0.16667930  0.27851621    -0.04400
C1170       C  0.07346063  0.16417404  0.28186265     0.09700
C1171       C  0.06836609  0.14995715  0.29095906    -0.01800
C1172       C  0.08032562  0.13851907  0.29698887    -0.00100
C1173       C  0.09754687  0.14083377  0.29346024    -0.03700
C1174       C  0.10260703  0.15518318  0.28442855     0.03300
C1175       C  0.06085578  0.17708503  0.27679122     0.10200
C1176       C  0.05073408  0.14714778  0.29413515     0.36100
C1177       C  0.12017717  0.15905031  0.28245613     0.39500
C1178       C  0.05434602  0.17737832  0.26041521    -0.04000
C1179       C  0.04250338  0.18958674  0.25576109     0.03100
C1180       C  0.03731544  0.20177242  0.26737704    -0.03600
C1181       C  0.04358731  0.20126245  0.28383495     0.00100
C1182       C  0.05534144  0.18901434  0.28850498    -0.02400
C1183       C  0.06001000  0.16520736  0.24832798     0.36800
C1184       C  0.03743040  0.21294627  0.29616263     0.40400
C1185       C  0.03582764  0.18977468  0.23893502     0.39600
C1186       C  0.06189217  0.18872739  0.30537496     0.36500
C1187       C  0.09588252  0.18138507  0.26931085     0.37200
C1188       C  0.07482036  0.12438128  0.30694714     0.40400
N1189       N  0.03041795  0.18992476  0.22554296    -0.37600
N1190       N  0.06462601  0.15553003  0.23868579    -0.39200
N1191       N  0.03236230  0.22210605  0.30607672    -0.37000
N1192       N  0.06714131  0.18846447  0.31882665    -0.39400
N1193       N  0.03665594  0.14491064  0.29660426    -0.39100
N1194       N  0.07042809  0.11312008  0.31490694    -0.36800
N1195       N  0.13409065  0.16270926  0.28096531    -0.37800
N1196       N  0.10004270  0.19311435  0.26193004    -0.39500
C1197       C  0.97693400  0.19868570  0.17344181    -0.04400
C1198       C  0.96340558  0.18790122  0.17685275     0.09700
C1199       C  0.95499188  0.18892845  0.19228958    -0.01800
C1200       C  0.96038480  0.20034986  0.20450758    -0.00100
C1201       C  0.97437923  0.21076344  0.20141354    -0.03700
C1202       C  0.98234102  0.21018047  0.18560803     0.03300
C1203       C  0.95812166  0.17520641  0.16428112     0.10200
C1204       C  0.94078944  0.17811504  0.19558234     0.36100
C1205       C  0.99632108  0.22112947  0.18186814     0.39500
C1206       C  0.96298540  0.15843778  0.16623289    -0.04000
C1207       C  0.95774087  0.14633725  0.15462860     0.03100
C1208       C  0.94828214  0.15105723  0.14052199    -0.03600
C1209       C  0.94267019  0.16772604  0.13908281     0.00100
C1210       C  0.94773602  0.17978622  0.15084463    -0.02400
C1211       C  0.97337847  0.15365208  0.18026811     0.36800
C1212       C  0.93189647  0.17259258  0.12537568     0.40400
C1213       C  0.96093703  0.12890105  0.15805715     0.39600
C1214       C  0.94237526  0.19696578  0.14911748     0.36500
C1215       C  0.98548033  0.19770558  0.15748409     0.37200
C1216       C  0.95109229  0.20177301  0.22001359     0.40400
N1217       N  0.96327804  0.11506698  0.16141743    -0.37600
N1218       N  0.98166255  0.14986947  0.19147427    -0.39200
N1219       N  0.92330136  0.17651702  0.11445548    -0.37000
N1220       N  0.93817881  0.21069948  0.14777160    -0.39400
N1221       N  0.92950401  0.16942197  0.19815926    -0.39100
N1222       N  0.94361544  0.20295644  0.23233250    -0.36800
N1223       N  0.00735083  0.22997516  0.17876192    -0.37800
N1224       N  0.99228738  0.19693387  0.14475327    -0.39500
C1225       C  0.13813302  0.21905423  0.11754824    -0.04400
C1226       C  0.12956499  0.22602225  0.13129317     0.09700
C1227       C  0.12128686  0.21546362  0.14277560    -0.01800
C1228       C  0.12077433  0.19812781  0.13999807    -0.00100
C1229       C  0.12941568  0.19117207  0.12632021    -0.03700
C1230       C  0.13821600  0.20164588  0.11518537     0.03300
C1231       C  0.12776936  0.24452543  0.13251318     0.10200
C1232       C  0.11314366  0.22249452  0.15732743     0.36100
C1233       C  0.14731143  0.19452388  0.10126955     0.39500
C1234       C  0.11245698  0.25197527  0.12811306    -0.04000
C1235       C  0.11120568  0.26943266  0.12693031     0.03100
C1236       C  0.12532703  0.27960273  0.12993151    -0.03600
C1237       C  0.14044040  0.27215622  0.13508030     0.00100
C1238       C  0.14158957  0.25467313  0.13658861    -0.02400
C1239       C  0.09810301  0.24160561  0.12415138     0.36800
C1240       C  0.15483000  0.28245369  0.13884967     0.40400
C1241       C  0.09569451  0.27667969  0.12119639     0.39600
C1242       C  0.15700982  0.24706909  0.14220110     0.36500
C1243       C  0.14662491  0.22985097  0.10567279     0.37200
C1244       C  0.11042119  0.18757697  0.15053787     0.40400
N1245       N  0.08318778  0.28188058  0.11622082    -0.37600
N1246       N  0.08664524  0.23332707  0.12110180    -0.39200
N1247       N  0.16643628  0.29048071  0.14200542    -0.37000
N1248       N  0.16930384  0.24100988  0.14672010    -0.39400
N1249       N  0.10671482  0.22809594  0.16897575    -0.39100
N1250       N  0.10186192  0.17922883  0.15871176    -0.36800
N1251       N  0.15463768  0.18891529  0.09017083    -0.37800
N1252       N  0.15346333  0.23851069  0.09629835    -0.39500
C1253       C  0.10657276  0.03633379  0.11758540    -0.04400
C1254       C  0.12036355  0.02742956  0.12388524     0.09700
C1255       C  0.13442200  0.03607348  0.12999605    -0.01800
C1256       C  0.13481414  0.05360097  0.12963257    -0.00100
C1257       C  0.12136735  0.06256061  0.12264590    -0.03700
C1258       C  0.10707820  0.05391423  0.11692452     0.03300
C1259       C  0.12078964  0.00889185  0.12300911     0.10200
C1260       C  0.14865568  0.02683753  0.13627985     0.36100
C1261       C  0.09313529  0.06306402  0.10992880     0.39500
C1262       C  0.12719000  0.00120474  0.10858780    -0.04000
C1263       C  0.12921972  0.98380520  0.10814192     0.03100
C1264       C  0.12506098  0.97397392  0.12224123    -0.03600
C1265       C  0.11842316  0.98171700  0.13660877     0.00100
C1266       C  0.11624086  0.99914365  0.13696392    -0.02400
C1267       C  0.13239059  0.01136640  0.09446569     0.36800
C1268       C  0.11356230  0.97177555  0.15094157     0.40400
C1269       C  0.13673394  0.97629051  0.09354082     0.39600
C1270       C  0.10960116  0.00712389  0.15177109     0.36500
C1271       C  0.09207930  0.02733675  0.11147610     0.37200
C1272       C  0.14876630  0.06241868  0.13708777     0.40400
N1273       N  0.14310298  0.97080378  0.08180836    -0.37600
N1274       N  0.13662227  0.01952607  0.08328514    -0.39200
N1275       N  0.10944207  0.96404025  0.16246019    -0.37000
N1276       N  0.10431546  0.01347886  0.16360080    -0.39400
N1277       N  0.15999193  0.01938034  0.14117575    -0.39100
N1278       N  0.15977644  0.06939023  0.14332413    -0.36800
N1279       N  0.08201639  0.07037484  0.10434386    -0.37800
N1280       N  0.08054658  0.02009745  0.10661756    -0.39500
C1281       C  0.00156989  0.11977012  0.12381266    -0.04400
C1282       C  0.00932425  0.13523796  0.12068314     0.09700
C1283       C  0.99960871  0.14942139  0.11730631    -0.01800
C1284       C  0.98212577  0.14794273  0.11609128    -0.00100
C1285       C  0.97423397  0.13238968  0.11908685    -0.03700
C1286       C  0.98407293  0.11841140  0.12336389     0.03300
C1287       C  0.02785006  0.13626992  0.12028656     0.10200
C1288       C  0.00768251  0.16548825  0.11498601     0.36100
C1289       C  0.97634214  0.10273539  0.12801646     0.39500
C1290       C  0.03644666  0.13209892  0.10551072    -0.04000
C1291       C  0.05398738  0.13120717  0.10551966     0.03100
C1292       C  0.06293612  0.13448203  0.12034632    -0.03600
C1293       C  0.05432466  0.13929761  0.13495959     0.00100
C1294       C  0.03676948  0.14022373  0.13490470    -0.02400
C1295       C  0.02714429  0.12833693  0.09043234     0.36800
C1296       C  0.06353718  0.14349328  0.14996770     0.40400
C1297       C  0.06275316  0.12615857  0.09048802     0.39600
C1298       C  0.02780513  0.14501940  0.14989040     0.36500
C1299       C  0.01169299  0.10523356  0.12750371     0.37200
C1300       C  0.97251235  0.16226756  0.11082161     0.40400
N1301       N  0.06975514  0.12210767  0.07851996    -0.37600
N1302       N  0.01965791  0.12534607  0.07845347    -0.39200
N1303       N  0.07090447  0.14686996  0.16191859    -0.37000
N1304       N  0.02057824  0.14889011  0.16178392    -0.39400
N1305       N  0.01414943  0.17831303  0.11330255    -0.39100
N1306       N  0.96529962  0.17391134  0.10630091    -0.36800
N1307       N  0.97071300  0.09007817  0.13217307    -0.37800
N1308       N  0.01980638  0.09366887  0.13040094    -0.39500
C1309       C  0.14108676  0.12173510  0.24880247    -0.04400
C1310       C  0.12767476  0.11735664  0.23834921     0.09700
C1311       C  0.11198390  0.11337436  0.24529874    -0.01800
C1312       C  0.10961955  0.11402283  0.26269775    -0.00100
C1313       C  0.12289450  0.11892651  0.27323576    -0.03700
C1314       C  0.13860804  0.12293245  0.26614368     0.03300
C1315       C  0.12947171  0.11875483  0.21991276     0.10200
C1316       C  0.09822561  0.10873594  0.23445535     0.36100
C1317       C  0.15200120  0.12930060  0.27646454     0.39500
C1318       C  0.13070205  0.10435076  0.20993774    -0.04000
C1319       C  0.13036083  0.10580855  0.19240492     0.03100
C1320       C  0.12937839  0.12174340  0.18488392    -0.03600
C1321       C  0.12926762  0.13618041  0.19493896     0.00100
C1322       C  0.12903569  0.13466955  0.21241081    -0.02400
C1323       C  0.13243510  0.08811659  0.21777041     0.36800
C1324       C  0.12895928  0.15263039  0.18737502     0.40400
C1325       C  0.13137170  0.09096807  0.18212683     0.39600
C1326       C  0.12802414  0.14949425  0.22273560     0.36500
C1327       C  0.15736961  0.12526799  0.24159938     0.37200
C1328       C  0.09362647  0.10911878  0.26961666     0.40400
N1329       N  0.13216906  0.07912697  0.17393653    -0.37600
N1330       N  0.13393730  0.07519612  0.22405604    -0.39200
N1331       N  0.12890790  0.16580552  0.18145936    -0.37000
N1332       N  0.12726961  0.16125786  0.23103867    -0.39400
N1333       N  0.08731678  0.10498330  0.22576295    -0.39100
N1334       N  0.08072176  0.10488990  0.27462198    -0.36800
N1335       N  0.16284155  0.13476446  0.28429128    -0.37800
N1336       N  0.17033864  0.12804691  0.23580662    -0.39500
C1337       C  0.13146519  0.13950561  0.02935791    -0.04400
C1338       C  0.12770593  0.12445405  0.02111690     0.09700
C1339       C  0.12254434  0.11036849  0.03035665    -0.01800
C1340       C  0.12166642  0.11115520  0.04790892    -0.00100
C1341       C  0.12603114  0.12605381  0.05627971    -0.03700
C1342       C  0.13048938  0.14037031  0.04689435     0.03300
C1343       C  0.13003142  0.12323145  0.00270783     0.10200
C1344       C  0.11839483  0.09501401  0.02174467     0.36100
C1345       C  0.13457809  0.15588261  0.05523585     0.39500
C1346       C  0.14586149  0.11922633  0.99621829    -0.04000
C1347       C  0.14830086  0.11835638  0.97884764     0.03100
C1348       C  0.13493642  0.12165554  0.96781576    -0.03600
C1349       C  0.11901088  0.12549105  0.97441140     0.00100
C1350       C  0.11656239  0.12618344  0.99182306    -0.02400
C1351       C  0.15959195  0.11576371  0.00751099     0.36800
C1352       C  0.10521143  0.12923141  0.96337642     0.40400
C1353       C  0.16437732  0.11312520  0.97248255     0.39600
C1354       C  0.10019825  0.12994349  0.99860664     0.36500
C1355       C  0.13675210  0.15396800  0.01974427     0.37200
C1356       C  0.11580409  0.09677770  0.05730603     0.40400
N1357       N  0.17728450  0.10854176  0.96791801    -0.37600
N1358       N  0.17050286  0.11297678  0.01654655    -0.39200
N1359       N  0.09401997  0.13242140  0.95483140    -0.37000
N1360       N  0.08713732  0.13287683  0.00404514    -0.39400
N1361       N  0.11509735  0.08280219  0.01480589    -0.39100
N1362       N  0.11104189  0.08534901  0.06480367    -0.36800
N1363       N  0.13774162  0.16831509  0.06183087    -0.37800
N1364       N  0.14102500  0.16544287  0.01202963    -0.39500
C1365       C  0.21782743  0.10983742  0.12140676    -0.04400
C1366       C  0.22650412  0.12512217  0.12232949     0.09700
C1367       C  0.21772085  0.14026436  0.12093264    -0.01800
C1368       C  0.20024060  0.14016281  0.11904207    -0.00100
C1369       C  0.19135539  0.12486791  0.11884091    -0.03700
C1370       C  0.20030842  0.10967478  0.11952259     0.03300
C1371       C  0.24495942  0.12541567  0.12491705     0.10200
C1372       C  0.22671202  0.15598265  0.12174396     0.36100
C1373       C  0.19158650  0.09382856  0.11870539     0.39500
C1374       C  0.25585520  0.12343768  0.11125105    -0.04000
C1375       C  0.27325051  0.12498414  0.11350037     0.03100
C1376       C  0.27985308  0.12891557  0.12939875    -0.03600
C1377       C  0.26881926  0.13065292  0.14311004     0.00100
C1378       C  0.25148520  0.12859775  0.14091344    -0.02400
C1379       C  0.24907703  0.11997940  0.09482744     0.36800
C1380       C  0.27501039  0.13585722  0.15925616     0.40400
C1381       C  0.28426906  0.12218229  0.09944542     0.39600
C1382       C  0.24025186  0.13005727  0.15507490     0.36500
C1383       C  0.22694524  0.09429612  0.12287215     0.37200
C1384       C  0.19147477  0.15583887  0.11684009     0.40400
N1385       N  0.29276550  0.11968163  0.08802757    -0.37600
N1386       N  0.24360779  0.11719576  0.08175896    -0.39200
N1387       N  0.27943374  0.14035776  0.17223551    -0.37000
N1388       N  0.23128620  0.13117195  0.16636295    -0.39400
N1389       N  0.23390577  0.16849363  0.12252516    -0.39100
N1390       N  0.18449158  0.16832349  0.11500168    -0.36800
N1391       N  0.18478001  0.08111027  0.11785084    -0.37800
N1392       N  0.23426277  0.08193017  0.12407496    -0.39500
C1393       C  0.17803115  0.97960190  0.19845943    -0.04400
C1394       C  0.18270738  0.96973830  0.18464115     0.09700
C1395       C  0.19953727  0.96481084  0.18280539    -0.01800
C1396       C  0.21173955  0.97046681  0.19412289    -0.00100
C1397       C  0.20704832  0.97995370  0.20816061    -0.03700
C1398       C  0.19010863  0.98437377  0.21039920     0.03300
C1399       C  0.17023596  0.96506458  0.17147859     0.10200
C1400       C  0.20430550  0.95393944  0.16916164     0.36100
C1401       C  0.18509128  0.99366739  0.22508427     0.39500
C1402       C  0.17137465  0.97232506  0.15544749    -0.04000
C1403       C  0.16140495  0.96631011  0.14224165     0.03100
C1404       C  0.14919827  0.95384526  0.14523211    -0.03600
C1405       C  0.14769138  0.94699728  0.16151458     0.00100
C1406       C  0.15832680  0.95240963  0.17448097    -0.02400
C1407       C  0.18329809  0.98569270  0.15244708     0.36800
C1408       C  0.13524702  0.93424533  0.16498464     0.40400
C1409       C  0.16513629  0.97184807  0.12542817     0.39600
C1410       C  0.15736726  0.94460396  0.19081458     0.36500
C1411       C  0.16085978  0.98502233  0.20023936     0.37200
C1412       C  0.22926180  0.96767882  0.19054458     0.40400
N1413       N  0.16896566  0.97639202  0.11224261    -0.37600
N1414       N  0.19284249  0.99632456  0.15013059    -0.39200
N1415       N  0.12530552  0.92409105  0.16774765    -0.37000
N1416       N  0.15662271  0.93837818  0.20384828    -0.39400
N1417       N  0.20803420  0.94520978  0.15830439    -0.39100
N1418       N  0.24323318  0.96585911  0.18734650    -0.36800
N1419       N  0.18111190  0.00100394  0.23685609    -0.37800
N1420       N  0.14715197  0.98934692  0.20163539    -0.39500
C1421       C  0.15211826  0.07256283  0.28256640    -0.04400
C1422       C  0.16857804  0.07508960  0.28833297     0.09700
C1423       C  0.17193119  0.08831487  0.29942620    -0.01800
C1424       C  0.15902249  0.09920305  0.30438871    -0.00100
C1425       C  0.14262415  0.09712406  0.29807806    -0.03700
C1426       C  0.13913613  0.08329124  0.28771494     0.03300
C1427       C  0.18241661  0.06373021  0.28286813     0.10200
C1428       C  0.18878282  0.09078703  0.30559648     0.36100
C1429       C  0.12205785  0.07927259  0.28330526     0.39500
C1430       C  0.19388982  0.06902393  0.27053807    -0.04000
C1431       C  0.20708385  0.05848769  0.26554841     0.03100
C1432       C  0.20877509  0.04238778  0.27266404    -0.03600
C1433       C  0.19724759  0.03712867  0.28505240     0.00100
C1434       C  0.18421202  0.04779987  0.29018349    -0.02400
C1435       C  0.19202894  0.08535728  0.26294227     0.36800
C1436       C  0.19834563  0.02046842  0.29208840     0.40400
C1437       C  0.21921082  0.06449291  0.25344958     0.39600
C1438       C  0.17254874  0.04236656  0.30297718     0.36500
C1439       C  0.14857273  0.05892850  0.27123042     0.37200
C1440       C  0.16277744  0.11274223  0.31577388     0.40400
N1441       N  0.22891265  0.06938071  0.24387550    -0.37600
N1442       N  0.19050419  0.09840629  0.25694250    -0.39200
N1443       N  0.19924192  0.00716284  0.29764817    -0.37000
N1444       N  0.16322059  0.03802183  0.31316190    -0.39400
N1445       N  0.20226567  0.09274515  0.31041412    -0.39100
N1446       N  0.16582400  0.12355414  0.32482707    -0.36800
N1447       N  0.10850963  0.07554299  0.27992246    -0.37800
N1448       N  0.14575395  0.04806065  0.26217238    -0.39500
C1449       C  0.26891087  0.06830536  0.18959688    -0.04400
C1450       C  0.28588166  0.06900968  0.18516449     0.09700
C1451       C  0.29696431  0.05685689  0.19122381    -0.01800
C1452       C  0.29118960  0.04403696  0.20191820    -0.00100
C1453       C  0.27405425  0.04327805  0.20683748    -0.03700
C1454       C  0.26292008  0.05552254  0.20019958     0.03300
C1455       C  0.29209665  0.08263998  0.17398195     0.10200
C1456       C  0.31444981  0.05764868  0.18641579     0.36100
C1457       C  0.24519241  0.05532973  0.20404003     0.39500
C1458       C  0.29991432  0.09681351  0.18084991    -0.04000
C1459       C  0.30560745  0.10976126  0.17032998     0.03100
C1460       C  0.30316075  0.10876215  0.15284431    -0.03600
C1461       C  0.29612446  0.09412947  0.14597579     0.00100
C1462       C  0.29027450  0.08128572  0.15653782    -0.02400
C1463       C  0.30179110  0.09816950  0.19881008     0.36800
C1464       C  0.29605552  0.09159394  0.12807846     0.40400
C1465       C  0.31368453  0.12424033  0.17761828     0.39600
C1466       C  0.28234720  0.06662081  0.14948239     0.36500
C1467       C  0.25761867  0.08100632  0.18331307     0.37200
C1468       C  0.30312881  0.03162677  0.20746958     0.40400
N1469       N  0.32010510  0.13578351  0.18345755    -0.37600
N1470       N  0.30324687  0.09922377  0.21314206    -0.39200
N1471       N  0.29620047  0.08902551  0.11387260    -0.37000
N1472       N  0.27592545  0.05496384  0.14388029    -0.39400
N1473       N  0.32838082  0.05836110  0.18259101    -0.39100
N1474       N  0.31276719  0.02180904  0.21182027    -0.36800
N1475       N  0.23100927  0.05526047  0.20687736    -0.37800
N1476       N  0.24869486  0.09116612  0.17828304    -0.39500
C1477       C  0.32998226  0.05200831  0.33885525    -0.04400
C1478       C  0.33503939  0.04096327  0.32613597     0.09700
C1479       C  0.35196251  0.03624982  0.32500326    -0.01800
C1480       C  0.36370579  0.04227428  0.33668780    -0.00100
C1481       C  0.35851380  0.05258320  0.35000088    -0.03700
C1482       C  0.34166688  0.05790288  0.35065018     0.03300
C1483       C  0.32245346  0.03413015  0.31405776     0.10200
C1484       C  0.35727359  0.02516492  0.31174777     0.36100
C1485       C  0.33623412  0.06934583  0.36356043     0.39500
C1486       C  0.32159755  0.04029378  0.29755735    -0.04000
C1487       C  0.30980833  0.03368146  0.28621122     0.03100
C1488       C  0.29810078  0.02146282  0.29155818    -0.03600
C1489       C  0.29882632  0.01560221  0.30825879     0.00100
C1490       C  0.31127975  0.02150947  0.31923170    -0.02400
C1491       C  0.33271089  0.05366481  0.29235985     0.36800
C1492       C  0.28684619  0.00341525  0.31430295     0.40400
C1493       C  0.30948304  0.03988366  0.26917418     0.39600
C1494       C  0.31282863  0.01441295  0.33585164     0.36500
C1495       C  0.31268109  0.05725500  0.33982213     0.37200
C1496       C  0.38126765  0.03887721  0.33410708     0.40400
N1497       N  0.30932204  0.04475512  0.25555711    -0.37600
N1498       N  0.34155186  0.06437133  0.28826220    -0.39200
N1499       N  0.27717946  0.99393149  0.31940494    -0.37000
N1500       N  0.31421972  0.00872189  0.34906934    -0.39400
N1501       N  0.36146687  0.01635698  0.30112630    -0.39100
N1502       N  0.39521779  0.03626488  0.33143030    -0.36800
N1503       N  0.33189750  0.07847336  0.37385098    -0.37800
N1504       N  0.29886717  0.06138904  0.34061806    -0.39500
C1505       C  0.32460987  0.89802959  0.21709150    -0.04400
C1506       C  0.32580033  0.91443306  0.21077152     0.09700
C1507       C  0.33737214  0.91810143  0.19797121    -0.01800
C1508       C  0.34818368  0.90560738  0.19201171    -0.00100
C1509       C  0.34751058  0.88933272  0.19887462    -0.03700
C1510       C  0.33509656  0.88541816  0.21081287     0.03300
C1511       C  0.31439771  0.92773982  0.21715485     0.10200
C1512       C  0.33814052  0.93478034  0.19095313     0.36100
C1513       C  0.33215073  0.86824900  0.21569056     0.39500
C1514       C  0.32026978  0.93967072  0.22864808    -0.04000
C1515       C  0.30960276  0.95247050  0.23435208     0.03100
C1516       C  0.29274860  0.95317470  0.22892205    -0.03600
C1517       C  0.28677732  0.94062336  0.21793441     0.00100
C1518       C  0.29766859  0.92827542  0.21178920    -0.02400
C1519       C  0.33725185  0.93848623  0.23484367     0.36800
C1520       C  0.26937823  0.94008074  0.21297893     0.40400
C1521       C  0.31584894  0.96436398  0.24646524     0.39600
C1522       C  0.29168802  0.91605715  0.19983689     0.36500
C1523       C  0.31254743  0.89414633  0.23007447     0.37200
C1524       C  0.36022481  0.90964617  0.17903498     0.40400
N1525       N  0.32087854  0.97379939  0.25616032    -0.37600
N1526       N  0.35078606  0.93738762  0.23977129    -0.39200
N1527       N  0.25545671  0.93918914  0.20922887    -0.37000
N1528       N  0.28697472  0.90630384  0.19030212    -0.39400
N1529       N  0.33875308  0.94808924  0.18535815    -0.39100
N1530       N  0.36984971  0.91285207  0.16870608    -0.36800
N1531       N  0.32924461  0.85460002  0.21944285    -0.37800
N1532       N  0.30293247  0.89106232  0.24044537    -0.39500
C1533       C  0.21410142  0.90608842  0.32937731    -0.04400
C1534       C  0.21017035  0.92312844  0.33095002     0.09700
C1535       C  0.20045357  0.92856032  0.34454878    -0.01800
C1536       C  0.19493103  0.91703458  0.35672128    -0.00100
C1537       C  0.19934383  0.89995739  0.35553485    -0.03700
C1538       C  0.20856138  0.89450554  0.34149013     0.03300
C1539       C  0.21679763  0.93541425  0.31849519     0.10200
C1540       C  0.19638005  0.94610267  0.34611816     0.36100
C1541       C  0.21146845  0.87692667  0.33869414     0.39500
C1542       C  0.20679505  0.94079011  0.30502919    -0.04000
C1543       C  0.21332506  0.95206577  0.29312258     0.03100
C1544       C  0.22995919  0.95783201  0.29451497    -0.03600
C1545       C  0.24007466  0.95208842  0.30774347     0.00100
C1546       C  0.23340615  0.94116581  0.31987608    -0.02400
C1547       C  0.18985706  0.93457204  0.30334036     0.36800
C1548       C  0.25765565  0.95640809  0.30822049     0.40400
C1549       C  0.20291856  0.95782207  0.27945839     0.39600
C1550       C  0.24364640  0.93564251  0.33375405     0.36500
C1551       C  0.22382738  0.90050770  0.31514944     0.37200
C1552       C  0.18492898  0.92290480  0.37062860     0.40400
N1553       N  0.19472314  0.96244918  0.26850305    -0.37600
N1554       N  0.17634218  0.92961443  0.30192683    -0.39200
N1555       N  0.27179687  0.95940866  0.30849066    -0.37000
N1556       N  0.25168636  0.93117101  0.34488566    -0.39400
N1557       N  0.19315331  0.96010321  0.34734820    -0.39100
N1558       N  0.17697564  0.92760646  0.38172877    -0.36800
N1559       N  0.21384800  0.86301941  0.33575489    -0.37800
N1560       N  0.23161722  0.89614740  0.30379663    -0.39500
C1561       C  0.50220519  0.87391347  0.38948787    -0.04400
C1562       C  0.49370038  0.87785153  0.37460601     0.09700
C1563       C  0.50280483  0.88191644  0.36007201    -0.01800
C1564       C  0.52038352  0.88196698  0.36040571    -0.00100
C1565       C  0.52896143  0.87756113  0.37516834    -0.03700
C1566       C  0.51976496  0.87352368  0.38971180     0.03300
C1567       C  0.47509385  0.87736103  0.37422456     0.10200
C1568       C  0.49404736  0.88599708  0.34475635     0.36100
C1569       C  0.52821670  0.86801929  0.40470108     0.39500
C1570       C  0.46589613  0.89232482  0.37405874    -0.04000
C1571       C  0.44831077  0.89179796  0.37380635     0.03100
C1572       C  0.43985263  0.87628288  0.37462581    -0.03600
C1573       C  0.44913131  0.86135595  0.37532175     0.00100
C1574       C  0.46668569  0.86187611  0.37458803    -0.02400
C1575       C  0.47457698  0.90823999  0.37448595     0.36800
C1576       C  0.44072415  0.84554691  0.37805584     0.40400
C1577       C  0.43897801  0.90722559  0.37236920     0.39600
C1578       C  0.47616364  0.84647487  0.37445007     0.36500
C1579       C  0.49281446  0.87008431  0.40454817     0.37200
C1580       C  0.52956521  0.88716709  0.34568897     0.40400
N1581       N  0.43156107  0.91953378  0.37114915    -0.37600
N1582       N  0.48157341  0.92088612  0.37490643    -0.39200
N1583       N  0.43411022  0.83295643  0.38064960    -0.37000
N1584       N  0.48377433  0.83423073  0.37435270    -0.39400
N1585       N  0.48705739  0.88930950  0.33256041    -0.39100
N1586       N  0.53657895  0.89165499  0.33385002    -0.36800
N1587       N  0.53450993  0.86322961  0.41678362    -0.37800
N1588       N  0.48528986  0.86698555  0.41651642    -0.39500
C1589       C  0.37386183  0.85987980  0.46683727    -0.04400
C1590       C  0.37150336  0.87505455  0.47537538     0.09700
C1591       C  0.37012599  0.89009586  0.46632488    -0.01800
C1592       C  0.37124348  0.89000256  0.44878071    -0.00100
C1593       C  0.37403280  0.87487984  0.44019686    -0.03700
C1594       C  0.37526712  0.85978927  0.44929488     0.03300
C1595       C  0.37070793  0.87527547  0.49398410     0.10200
C1596       C  0.36738221  0.90565750  0.47511503     0.36100
C1597       C  0.37836806  0.84420473  0.44067224     0.39500
C1598       C  0.38549974  0.87386395  0.50339565    -0.04000
C1599       C  0.38484003  0.87429818  0.52096044     0.03100
C1600       C  0.36940863  0.87661142  0.52923035    -0.03600
C1601       C  0.35465547  0.87836831  0.51969836     0.00100
C1602       C  0.35526831  0.87737600  0.50216437    -0.02400
C1603       C  0.40142813  0.87206324  0.49492861     0.36800
C1604       C  0.33896705  0.88232671  0.52776693     0.40400
C1605       C  0.40002904  0.87187229  0.53044097     0.39600
C1606       C  0.34002635  0.87872804  0.49247451     0.36500
C1607       C  0.37471318  0.84436204  0.47615865     0.37200
C1608       C  0.36865797  0.90537091  0.43955911     0.40400
N1609       N  0.41230998  0.86976402  0.53773629    -0.37600
N1610       N  0.41409604  0.87061938  0.48811388    -0.39200
N1611       N  0.32633487  0.88587558  0.53380691    -0.37000
N1612       N  0.32788476  0.87985047  0.48473640    -0.39400
N1613       N  0.36507993  0.91801580  0.48217116    -0.39100
N1614       N  0.36639236  0.91761656  0.43224621    -0.36800
N1615       N  0.38085566  0.83178148  0.43379149    -0.37800
N1616       N  0.37536544  0.83201854  0.48364805    -0.39500
C1617       C  0.28387519  0.87621073  0.36224546    -0.04400
C1618       C  0.27544518  0.87531647  0.37768960     0.09700
C1619       C  0.28464214  0.87421731  0.39265176    -0.01800
C1620       C  0.30225056  0.87437494  0.39220046    -0.00100
C1621       C  0.31076859  0.87503277  0.37668982    -0.03700
C1622       C  0.30145461  0.87566348  0.36170738     0.03300
C1623       C  0.25680955  0.87587470  0.37815609     0.10200
C1624       C  0.27591888  0.87309572  0.40851768     0.36100
C1625       C  0.30986146  0.87499077  0.34567656     0.39500
C1626       C  0.24736193  0.86159526  0.37407308    -0.04000
C1627       C  0.22977262  0.86227460  0.37411886     0.03100
C1628       C  0.22150309  0.87730941  0.37810695    -0.03600
C1629       C  0.23105988  0.89156352  0.38227097     0.00100
C1630       C  0.24863123  0.89081348  0.38237095    -0.02400
C1631       C  0.25580058  0.84621174  0.36974609     0.36800
C1632       C  0.22290172  0.90680302  0.38740382     0.40400
C1633       C  0.22028378  0.84759639  0.36949167     0.39600
C1634       C  0.25836609  0.90538016  0.38700268     0.36500
C1635       C  0.27438922  0.87793139  0.34691187     0.37200
C1636       C  0.31153233  0.87452559  0.40775704     0.40400
N1637       N  0.21299789  0.83575208  0.36557440    -0.37600
N1638       N  0.26254163  0.83396874  0.36622340    -0.39200
N1639       N  0.21678648  0.91906921  0.39185023    -0.37000
N1640       N  0.26616650  0.91692643  0.39082612    -0.39400
N1641       N  0.26890955  0.87222563  0.42114151    -0.39100
N1642       N  0.31893154  0.87472615  0.42016026    -0.36800
N1643       N  0.31648570  0.87422280  0.33285504    -0.37800
N1644       N  0.26675520  0.87938700  0.33473962    -0.39500
C1645       C  0.38763921  0.78332746  0.36720391    -0.04400
C1646       C  0.37318660  0.77487237  0.37263855     0.09700
C1647       C  0.35919479  0.78398996  0.37798586    -0.01800
C1648       C  0.35966447  0.80159006  0.37810371    -0.00100
C1649       C  0.37427961  0.81032839  0.37283260    -0.03700
C1650       C  0.38813086  0.80092605  0.36695545     0.03300
C1651       C  0.37273106  0.75624101  0.37255292     0.10200
C1652       C  0.34426470  0.77515981  0.38337633     0.36100
C1653       C  0.40296510  0.80907546  0.36043447     0.39500
C1654       C  0.37667109  0.74725291  0.38714899    -0.04000
C1655       C  0.37691837  0.72968604  0.38690914     0.03100
C1656       C  0.37337442  0.72096682  0.37199095    -0.03600
C1657       C  0.36933387  0.73005443  0.35740041     0.00100
C1658       C  0.36889234  0.74761991  0.35772969    -0.02400
C1659       C  0.38072415  0.75615957  0.40236036     0.36800
C1660       C  0.36490460  0.72139245  0.34218689     0.40400
C1661       C  0.38152708  0.72068132  0.40189643     0.39600
C1662       C  0.36431085  0.75688942  0.34285619     0.36500
C1663       C  0.40214276  0.77376568  0.36208517     0.37200
C1664       C  0.34472537  0.81053093  0.38306415     0.40400
N1665       N  0.38544118  0.71377040  0.41396667    -0.37600
N1666       N  0.38397058  0.76329033  0.41447684    -0.39200
N1667       N  0.36108873  0.71477949  0.32994186    -0.37000
N1668       N  0.36059938  0.76429184  0.33101468    -0.39400
N1669       N  0.33238322  0.76810078  0.38769523    -0.39100
N1670       N  0.33278436  0.81760606  0.38702439    -0.36800
N1671       N  0.41477476  0.81530721  0.35483701    -0.37800
N1672       N  0.41366107  0.76603167  0.35812609    -0.39500
C1673       C  0.37169827  0.96798976  0.36329622    -0.04400
C1674       C  0.37793712  0.97656375  0.37727957     0.09700
C1675       C  0.38413575  0.96755919  0.39103049    -0.01800
C1676       C  0.38391393  0.94994591  0.39094284    -0.00100
C1677       C  0.37710842  0.94110467  0.37710583    -0.03700
C1678       C  0.37128964  0.95040574  0.36312395     0.03300
C1679       C  0.37841995  0.99519737  0.37716793     0.10200
C1680       C  0.39083217  0.97652331  0.40527846     0.36100
C1681       C  0.36558844  0.94209340  0.34808416     0.39500
C1682       C  0.36376650  0.00436185  0.38032238    -0.04000
C1683       C  0.36394890  0.02190372  0.37909396     0.03100
C1684       C  0.37883135  0.03042226  0.37474779    -0.03600
C1685       C  0.39351813  0.02115299  0.37169590     0.00100
C1686       C  0.39332200  0.00362775  0.37299339    -0.02400
C1687       C  0.34850521  0.99566979  0.38491614     0.36800
C1688       C  0.40869555  0.02947330  0.36636920     0.40400
C1689       C  0.34888901  0.03109854  0.38286512     0.39600
C1690       C  0.40840802  0.99417830  0.36976418     0.36500
C1691       C  0.36597625  0.97740799  0.34888966     0.37200
C1692       C  0.39093925  0.94118373  0.40515069     0.40400
N1693       N  0.33669097  0.03806166  0.38616170    -0.37600
N1694       N  0.33634116  0.98872322  0.38858001    -0.39200
N1695       N  0.42094286  0.03569849  0.36180345    -0.37000
N1696       N  0.42043449  0.98661438  0.36725640    -0.39400
N1697       N  0.39620594  0.98369813  0.41659345    -0.39100
N1698       N  0.39684828  0.93436528  0.41643304    -0.36800
N1699       N  0.36107051  0.93556061  0.33602985    -0.37800
N1700       N  0.36146669  0.98503111  0.33747387    -0.39500
C1701       C  0.38935298  0.87237747  0.28416492    -0.04400
C1702       C  0.37519540  0.87786229  0.27537433     0.09700
C1703       C  0.36182624  0.88521187  0.28406917    -0.01800
C1704       C  0.36218323  0.88629872  0.30165187    -0.00100
C1705       C  0.37582404  0.87952760  0.31079066    -0.03700
C1706       C  0.38974796  0.87318755  0.30174020     0.03300
C1707       C  0.37432327  0.87567650  0.25687702     0.10200
C1708       C  0.34758996  0.89155253  0.27483599     0.36100
C1709       C  0.40483871  0.86791638  0.31026796     0.39500
C1710       C  0.37044047  0.85991855  0.25014102    -0.04000
C1711       C  0.36962371  0.85775774  0.23270596     0.03100
C1712       C  0.37273742  0.87135406  0.22183972    -0.03600
C1713       C  0.37670333  0.88712553  0.22869259     0.00100
C1714       C  0.37749775  0.88925524  0.24613675    -0.02400
C1715       C  0.36705395  0.84596444  0.26123877     0.36800
C1716       C  0.38049230  0.90114281  0.21790290     0.40400
C1717       C  0.36467247  0.84170054  0.22611330     0.39600
C1718       C  0.38173123  0.90540228  0.25311326     0.36500
C1719       C  0.40361120  0.86597837  0.27499204     0.37200
C1720       C  0.34841639  0.89450538  0.31004719     0.40400
N1721       N  0.36039355  0.82876610  0.22135286    -0.37600
N1722       N  0.36439104  0.83485728  0.27011886    -0.39200
N1723       N  0.38379039  0.91256296  0.20965856    -0.37000
N1724       N  0.38507244  0.91826442  0.25873564    -0.39400
N1725       N  0.33629603  0.89667788  0.26745033    -0.39100
N1726       N  0.33751371  0.90134913  0.31657442    -0.36800
N1727       N  0.41690477  0.86370314  0.31699062    -0.37800
N1728       N  0.41497260  0.86096293  0.26762472    -0.39500
C1729       C  0.83065448  0.19402148  0.41719244    -0.04400
C1730       C  0.81920250  0.20653644  0.41263128     0.09700
C1731       C  0.81895685  0.21249890  0.39605910    -0.01800
C1732       C  0.83049549  0.20640228  0.38423994    -0.00100
C1733       C  0.84296449  0.19494964  0.38912750    -0.03700
C1734       C  0.84254926  0.18828788  0.40553692     0.03300
C1735       C  0.80770730  0.21380573  0.42543034     0.10200
C1736       C  0.80668217  0.22484222  0.39116675     0.36100
C1737       C  0.85454840  0.17575071  0.41062225     0.39500
C1738       C  0.81173347  0.22919868  0.43292747    -0.04000
C1739       C  0.80099391  0.23619624  0.44497511     0.03100
C1740       C  0.78636429  0.22763081  0.44996230    -0.03600
C1741       C  0.78227774  0.21224196  0.44235293     0.00100
C1742       C  0.79286787  0.20542248  0.43003828    -0.02400
C1743       C  0.82695030  0.23786276  0.42813295     0.36800
C1744       C  0.76733095  0.20324918  0.44741283     0.40400
C1745       C  0.80450880  0.25268603  0.45144574     0.39600
C1746       C  0.78850049  0.18980654  0.42203593     0.36500
C1747       C  0.83022145  0.18714230  0.43396116     0.37200
C1748       C  0.82853949  0.21092938  0.36684591     0.40400
N1749       N  0.80725802  0.26599786  0.45625884    -0.37600
N1750       N  0.83909533  0.24472059  0.42425102    -0.39200
N1751       N  0.75540583  0.19610018  0.45146870    -0.37000
N1752       N  0.78502113  0.17735341  0.41563058    -0.39400
N1753       N  0.79690662  0.23471721  0.38729842    -0.39100
N1754       N  0.82630851  0.21444211  0.35301211    -0.36800
N1755       N  0.86409846  0.16575059  0.41473160    -0.37800
N1756       N  0.82971912  0.18159374  0.44730741    -0.39500
C1757       C  0.79515570  0.31520837  0.54029532    -0.04400
C1758       C  0.81154050  0.31667128  0.53397721     0.09700
C1759       C  0.81668436  0.30633892  0.52074153    -0.01800
C1760       C  0.80561659  0.29442000  0.51396864    -0.00100
C1761       C  0.78897915  0.29313732  0.51993545    -0.03700
C1762       C  0.78384484  0.30366257  0.53321671     0.03300
C1763       C  0.82357406  0.32898317  0.54132264     0.10200
C1764       C  0.83341848  0.30814741  0.51396484     0.36100
C1765       C  0.76710516  0.30230345  0.54009526     0.39500
C1766       C  0.83593206  0.32358723  0.55261639    -0.04000
C1767       C  0.84810065  0.33488632  0.55853484     0.03100
C1768       C  0.84803918  0.35173902  0.55314746    -0.03600
C1769       C  0.83484215  0.35734219  0.54284751     0.00100
C1770       C  0.82289808  0.34593313  0.53666455    -0.02400
C1771       C  0.83621379  0.30628837  0.55795873     0.36800
C1772       C  0.83278283  0.37495120  0.53942038     0.40400
C1773       C  0.86099899  0.32893981  0.56975389     0.39600
C1774       C  0.80993746  0.35157459  0.52536089     0.36500
C1775       C  0.79003186  0.32549066  0.55426010     0.37200
C1776       C  0.81150334  0.28362882  0.50074993     0.40400
N1777       N  0.87130437  0.32416346  0.57866592    -0.37600
N1778       N  0.83639936  0.29247973  0.56218996    -0.39200
N1779       N  0.83052913  0.38894693  0.53673883    -0.37000
N1780       N  0.79957130  0.35601566  0.51634724    -0.39400
N1781       N  0.84675284  0.30965029  0.50856196    -0.39100
N1782       N  0.81647803  0.27492637  0.49039635    -0.36800
N1783       N  0.75375126  0.30127385  0.54557465    -0.37800
N1784       N  0.78597969  0.33367896  0.56542266    -0.39500
C1785       C  0.70736666  0.30493464  0.43044105    -0.04400
C1786       C  0.71423426  0.32113858  0.43096944     0.09700
C1787       C  0.72697953  0.32483365  0.44252633    -0.01800
C1788       C  0.73247217  0.31253347  0.45389801    -0.00100
C1789       C  0.72570780  0.29616690  0.45334109    -0.03700
C1790       C  0.71331843  0.29240826  0.44126855     0.03300
C1791       C  0.70814782  0.33423155  0.41910358     0.10200
C1792       C  0.73470889  0.34123151  0.44239257     0.36100
C1793       C  0.70650450  0.27569312  0.43987833     0.39500
C1794       C  0.69751371  0.34703414  0.42476597    -0.04000
C1795       C  0.69153177  0.35916052  0.41348964     0.03100
C1796       C  0.69604942  0.35847856  0.39641217    -0.03600
C1797       C  0.70582952  0.34503901  0.39063927     0.00100
C1798       C  0.71233370  0.33331946  0.40201654    -0.02400
C1799       C  0.69258140  0.34759275  0.44219189     0.36800
C1800       C  0.70792163  0.34222376  0.37290800     0.40400
C1801       C  0.68074665  0.37234890  0.41953068     0.39600
C1802       C  0.72318974  0.32012444  0.39611520     0.36500
C1803       C  0.69409781  0.30116953  0.41868285     0.37200
C1804       C  0.74552814  0.31666574  0.46574838     0.40400
N1805       N  0.67216706  0.38288377  0.42435600    -0.37600
N1806       N  0.68865520  0.34802639  0.45609622    -0.39200
N1807       N  0.70939202  0.33930299  0.35884657    -0.37000
N1808       N  0.73183093  0.30957226  0.39144648    -0.39400
N1809       N  0.74088654  0.35430026  0.44216468    -0.39100
N1810       N  0.75590355  0.31999442  0.47523177    -0.36800
N1811       N  0.70116617  0.26235481  0.43840401    -0.37800
N1812       N  0.68356557  0.29820712  0.40925393    -0.39500
C1813       C  0.68321754  0.26634886  0.56144820    -0.04400
C1814       C  0.67345126  0.28014711  0.55672708     0.09700
C1815       C  0.67692801  0.28870941  0.54173957    -0.01800
C1816       C  0.69033447  0.28367255  0.53155551    -0.00100
C1817       C  0.70020813  0.26974368  0.53616293    -0.03700
C1818       C  0.69640427  0.26097407  0.55111499     0.03300
C1819       C  0.65980826  0.28609590  0.56788028     0.10200
C1820       C  0.66669748  0.30280990  0.53685983     0.36100
C1821       C  0.70623395  0.24666439  0.55620767     0.39500
C1822       C  0.66363085  0.29661768  0.58141136    -0.04000
C1823       C  0.65081622  0.30223997  0.59203793     0.03100
C1824       C  0.63403652  0.29761018  0.58896481    -0.03600
C1825       C  0.63016331  0.28814558  0.57463400     0.00100
C1826       C  0.64306825  0.28184076  0.56450413    -0.02400
C1827       C  0.68078110  0.30179358  0.58421360     0.36800
C1828       C  0.61303361  0.28639545  0.56916308     0.40400
C1829       C  0.65494333  0.31300750  0.60596609     0.39600
C1830       C  0.63914762  0.27110161  0.55048272     0.36500
C1831       C  0.67984246  0.25792074  0.57716430     0.37200
C1832       C  0.69361575  0.29270126  0.51614502     0.40400
N1833       N  0.65829284  0.32161983  0.61704780    -0.37600
N1834       N  0.69447988  0.30592467  0.58631146    -0.39200
N1835       N  0.59959780  0.28530812  0.56397757    -0.37000
N1836       N  0.63603249  0.26247939  0.53934130    -0.39400
N1837       N  0.65849332  0.31400693  0.53294194    -0.39100
N1838       N  0.69629366  0.29996900  0.50391807    -0.36800
N1839       N  0.71396065  0.23517992  0.56027779    -0.37800
N1840       N  0.67720604  0.25137213  0.58979510    -0.39500
C1841       C  0.79859625  0.15755050  0.56703615    -0.04400
C1842       C  0.78906573  0.17096904  0.57314732     0.09700
C1843       C  0.78618687  0.17243021  0.59044719    -0.01800
C1844       C  0.79274657  0.16048183  0.60160751    -0.00100
C1845       C  0.80167304  0.14658568  0.59547640    -0.03700
C1846       C  0.80501073  0.14548492  0.57814098     0.03300
C1847       C  0.78215760  0.18366058  0.56129659     0.10200
C1848       C  0.77642118  0.18627376  0.59673160     0.36100
C1849       C  0.81481617  0.13177855  0.57161240     0.39500
C1850       C  0.76673826  0.18075961  0.55336897    -0.04000
C1851       C  0.76041242  0.19241456  0.54176543     0.03100
C1852       C  0.76939316  0.20731704  0.53815305    -0.03600
C1853       C  0.78466333  0.21036756  0.54661210     0.00100
C1854       C  0.79109170  0.19846837  0.55791807    -0.02400
C1855       C  0.75741094  0.16566202  0.55719141     0.36800
C1856       C  0.79350365  0.22604128  0.54431450     0.40400
C1857       C  0.74478045  0.18873525  0.53339189     0.39600
C1858       C  0.80698335  0.20139792  0.56610042     0.36500
C1859       C  0.80162216  0.15610596  0.54923764     0.37200
C1860       C  0.79133250  0.16330073  0.61940150     0.40400
N1861       N  0.73224035  0.18573847  0.52687159    -0.37600
N1862       N  0.75002258  0.15361869  0.56031728    -0.39200
N1863       N  0.80052207  0.23857226  0.54257648    -0.37000
N1864       N  0.81967678  0.20367325  0.57261555    -0.39400
N1865       N  0.76858498  0.19729727  0.60171726    -0.39100
N1866       N  0.79031047  0.16615559  0.63351632    -0.36800
N1867       N  0.82258440  0.12081812  0.56638342    -0.37800
N1868       N  0.80395981  0.15497857  0.53502362    -0.39500
C1869       C  0.79388796  0.05191359  0.68029770    -0.04400
C1870       C  0.78446259  0.06595447  0.67561817     0.09700
C1871       C  0.76906871  0.06907487  0.68352439    -0.01800
C1872       C  0.76307459  0.05823136  0.69613760    -0.00100
C1873       C  0.77246148  0.04396967  0.70097327    -0.03700
C1874       C  0.78800187  0.04096591  0.69285098     0.03300
C1875       C  0.79090091  0.07760222  0.66241414     0.10200
C1876       C  0.75946852  0.08364419  0.67873299     0.36100
C1877       C  0.79797774  0.02644314  0.69696678     0.39500
C1878       C  0.78527194  0.07616683  0.64580785    -0.04000
C1879       C  0.79154661  0.08696600  0.63332336     0.03100
C1880       C  0.80285184  0.09987453  0.63751858    -0.03600
C1881       C  0.80899075  0.10082527  0.65407300     0.00100
C1882       C  0.80300869  0.08974375  0.66644316    -0.02400
C1883       C  0.77310872  0.06342157  0.64156805     0.36800
C1884       C  0.82118376  0.11346142  0.65856598     0.40400
C1885       C  0.78734703  0.08382811  0.61603471     0.39600
C1886       C  0.80920148  0.09087721  0.68341592     0.36500
C1887       C  0.80970992  0.04871637  0.67203834     0.37200
C1888       C  0.74740331  0.06220498  0.70431531     0.40400
N1889       N  0.78408674  0.08070770  0.60232484    -0.37600
N1890       N  0.76334072  0.05330241  0.63822359    -0.39200
N1891       N  0.83087488  0.12355838  0.66218957    -0.37000
N1892       N  0.81415679  0.09168589  0.69695583    -0.39400
N1893       N  0.75184208  0.09526681  0.67488766    -0.39100
N1894       N  0.73486191  0.06542589  0.71073155    -0.36800
N1895       N  0.80604141  0.01493376  0.70022883    -0.37800
N1896       N  0.82232947  0.04623681  0.66544481    -0.39500
C1897       C  0.68073182  0.04582876  0.78606052    -0.04400
C1898       C  0.68031209  0.06320800  0.78323098     0.09700
C1899       C  0.69283090  0.07078167  0.77326681    -0.01800
C1900       C  0.70588758  0.06109270  0.76651810    -0.00100
C1901       C  0.70616668  0.04370559  0.76921677    -0.03700
C1902       C  0.69331313  0.03606340  0.77865288     0.03300
C1903       C  0.66660100  0.07356735  0.79057453     0.10200
C1904       C  0.69224219  0.08857129  0.76998326     0.36100
C1905       C  0.69256800  0.01802566  0.78003157     0.39500
C1906       C  0.67002914  0.08461220  0.80382850    -0.04000
C1907       C  0.65748214  0.09537419  0.80980828     0.03100
C1908       C  0.64129430  0.09501801  0.80269277    -0.03600
C1909       C  0.63749317  0.08278179  0.79060492     0.00100
C1910       C  0.65019965  0.07244780  0.78421538    -0.02400
C1911       C  0.68657410  0.08500522  0.81118904     0.36800
C1912       C  0.62037537  0.08000765  0.78545715     0.40400
C1913       C  0.66151003  0.10724533  0.82285391     0.39600
C1914       C  0.64641936  0.06068153  0.77101023     0.36500
C1915       C  0.66829310  0.03800677  0.79672627     0.37200
C1916       C  0.71923897  0.06906258  0.75716883     0.40400
N1917       N  0.66474892  0.11671630  0.83324584    -0.37600
N1918       N  0.69978183  0.08531484  0.81703292    -0.39200
N1919       N  0.60678477  0.07723926  0.78140041    -0.37000
N1920       N  0.64343310  0.05119757  0.76055752    -0.39400
N1921       N  0.69172892  0.10277406  0.76744338    -0.39100
N1922       N  0.72993757  0.07547591  0.74981003    -0.36800
N1923       N  0.69182400  0.00363038  0.78084188    -0.37800
N1924       N  0.65838490  0.03176377  0.80524793    -0.39500
C1925       C  0.66775140  0.16244308  0.44638381    -0.04400
C1926       C  0.66390346  0.17304139  0.45985237     0.09700
C1927       C  0.64826627  0.17162454  0.46787297    -0.01800
C1928       C  0.63641809  0.15984868  0.46224241    -0.00100
C1929       C  0.64072385  0.14833631  0.44958060    -0.03700
C1930       C  0.65650537  0.14979589  0.44164455     0.03300
C1931       C  0.67659027  0.18545912  0.46565780     0.10200
C1932       C  0.64441387  0.18228186  0.48197090     0.36100
C1933       C  0.66155140  0.13793457  0.42895558     0.39500
C1934       C  0.67437501  0.20265940  0.46257102    -0.04000
C1935       C  0.68673169  0.21418156  0.46755242     0.03100
C1936       C  0.70175197  0.20847267  0.47478344    -0.03600
C1937       C  0.70406610  0.19125095  0.47758382     0.00100
C1938       C  0.69128475  0.17985713  0.47358633    -0.02400
C1939       C  0.65938650  0.20849159  0.45427496     0.36800
C1940       C  0.71989155  0.18516823  0.48390946     0.40400
C1941       C  0.68359326  0.23191948  0.46602210     0.39600
C1942       C  0.69316212  0.16233543  0.47773539     0.36500
C1943       C  0.68336345  0.16460787  0.43736988     0.37200
C1944       C  0.61955125  0.16056861  0.46873790     0.40400
N1945       N  0.68086574  0.24604986  0.46506219    -0.37600
N1946       N  0.64740354  0.21314423  0.44770475    -0.39200
N1947       N  0.73260903  0.18029810  0.48869213    -0.37000
N1948       N  0.69455234  0.14836422  0.48109561    -0.39400
N1949       N  0.64140611  0.19080289  0.49321397    -0.39100
N1950       N  0.60614989  0.16183477  0.47400133    -0.36800
N1951       N  0.66566313  0.12843003  0.41892049    -0.37800
N1952       N  0.69579849  0.16642843  0.43019531    -0.39500
C1953       C  0.65884195  0.94698115  0.67641774    -0.04400
C1954       C  0.67027090  0.95895897  0.67027591     0.09700
C1955       C  0.66957003  0.96363042  0.65327544    -0.01800
C1956       C  0.65734092  0.95665416  0.64262078    -0.00100
C1957       C  0.64494193  0.94578498  0.64908849    -0.03700
C1958       C  0.64612039  0.94059952  0.66600214     0.03300
C1959       C  0.68298187  0.96664194  0.68180221     0.10200
C1960       C  0.68147464  0.97566458  0.64673770     0.36100
C1961       C  0.63395269  0.92905907  0.67297283     0.39500
C1962       C  0.69998875  0.96210299  0.68076999    -0.04000
C1963       C  0.71182333  0.96924381  0.69173375     0.03100
C1964       C  0.70666971  0.98030666  0.70443714    -0.03600
C1965       C  0.68968752  0.98503099  0.70532954     0.00100
C1966       C  0.67795680  0.97839906  0.69392381    -0.02400
C1967       C  0.70529913  0.94996402  0.66848367     0.36800
C1968       C  0.68419069  0.99646219  0.71820959     0.40400
C1969       C  0.72945957  0.96607118  0.68921502     0.39600
C1970       C  0.66065464  0.98367223  0.69461285     0.36500
C1971       C  0.66024223  0.94116853  0.69352919     0.37200
C1972       C  0.65834380  0.95982349  0.62483625     0.40400
N1973       N  0.74354670  0.96387721  0.68688321    -0.37600
N1974       N  0.70952522  0.94027726  0.65867418    -0.39200
N1975       N  0.67981469  0.00557401  0.72849831    -0.37000
N1976       N  0.64683602  0.98783549  0.69509422    -0.39400
N1977       N  0.69102293  0.98522867  0.64153840    -0.39100
N1978       N  0.65964360  0.96228098  0.61065079    -0.36800
N1979       N  0.62425471  0.91987133  0.67856869    -0.37800
N1980       N  0.66141723  0.93649455  0.70715854    -0.39500
C1981       C  0.53388141  0.13360325  0.63362913    -0.04400
C1982       C  0.52490605  0.12026888  0.62657451     0.09700
C1983       C  0.53354472  0.10681636  0.61937443    -0.01800
C1984       C  0.55119016  0.10654798  0.61938733    -0.00100
C1985       C  0.56045580  0.12002626  0.62639237    -0.03700
C1986       C  0.55149174  0.13358713  0.63352548     0.03300
C1987       C  0.50623631  0.12065233  0.62648305     0.10200
C1988       C  0.52415798  0.09327114  0.61181848     0.36100
C1989       C  0.56011787  0.14793089  0.64044516     0.39500
C1990       C  0.49766463  0.12546374  0.61191049    -0.04000
C1991       C  0.48010908  0.12656710  0.61199275     0.03100
C1992       C  0.47095822  0.12293151  0.62669902    -0.03600
C1993       C  0.47962139  0.11817113  0.64130337     0.00100
C1994       C  0.49718693  0.11696464  0.64116340    -0.02400
C1995       C  0.50700401  0.12968657  0.59692759     0.36800
C1996       C  0.47052067  0.11413625  0.65642289     0.40400
C1997       C  0.47164536  0.13247201  0.59716059     0.39600
C1998       C  0.50602571  0.11195164  0.65614511     0.36500
C1999       C  0.52486477  0.14757511  0.64076926     0.37200
C2000       C  0.55954567  0.09213167  0.61237392     0.40400
N2001       N  0.46535089  0.13756492  0.58520331    -0.37600
N2002       N  0.51447519  0.13304933  0.58499621    -0.39200
N2003       N  0.46351864  0.11074374  0.66862519    -0.37000
N2004       N  0.51310947  0.10799661  0.66809192    -0.39400
N2005       N  0.51661256  0.08257940  0.60570026    -0.39100
N2006       N  0.56605811  0.08059324  0.60668788    -0.36800
N2007       N  0.56686723  0.15940581  0.64604141    -0.37800
N2008       N  0.51763529  0.15866617  0.64646866    -0.39500
C2009       C  0.62558507  0.13539282  0.53436144    -0.04400
C2010       C  0.62761384  0.12019784  0.52576671     0.09700
C2011       C  0.62962054  0.10520752  0.53476972    -0.01800
C2012       C  0.62913901  0.10533169  0.55235169    -0.00100
C2013       C  0.62656684  0.12046826  0.56097498    -0.03700
C2014       C  0.62488223  0.13552895  0.55191608     0.03300
C2015       C  0.62630406  0.11992718  0.50720675     0.10200
C2016       C  0.63207932  0.08966108  0.52589713     0.36100
C2017       C  0.62163712  0.15107554  0.56057497     0.39500
C2018       C  0.64071967  0.11872446  0.49717760    -0.04000
C2019       C  0.63931598  0.11926233  0.47964048     0.03100
C2020       C  0.62351581  0.12147186  0.47206167    -0.03600
C2021       C  0.60911323  0.12259746  0.48223712     0.00100
C2022       C  0.61048695  0.12148635  0.49970052    -0.02400
C2023       C  0.65698202  0.11701787  0.50495068     0.36800
C2024       C  0.59296978  0.12617168  0.47495905     0.40400
C2025       C  0.65411203  0.11708198  0.46946338     0.39600
C2026       C  0.59560790  0.12221212  0.51006228     0.36500
C2027       C  0.62399833  0.15086569  0.52505742     0.37200
C2028       C  0.63164039  0.08993203  0.56156308     0.40400
N2029       N  0.66608025  0.11513311  0.46159528    -0.37600
N2030       N  0.66993643  0.11560562  0.51117842    -0.39200
N2031       N  0.57994762  0.12937364  0.46961501    -0.37000
N2032       N  0.58379049  0.12277260  0.51837950    -0.39400
N2033       N  0.63414636  0.07729324  0.51878580    -0.39100
N2034       N  0.63364072  0.07768492  0.56896338    -0.36800
N2035       N  0.61894811  0.16346146  0.56744675    -0.37800
N2036       N  0.62271942  0.16317534  0.51760214    -0.39500
C2037       C  0.63826754  0.02939298  0.62439297    -0.04400
C2038       C  0.62282674  0.02150380  0.62773466     0.09700
C2039       C  0.60853607  0.03122463  0.63098231    -0.01800
C2040       C  0.60970199  0.04875380  0.63102605    -0.00100
C2041       C  0.62503064  0.05669810  0.62719314    -0.03700
C2042       C  0.63932363  0.04695167  0.62386985     0.03300
C2043       C  0.62167340  0.00290327  0.62822282     0.10200
C2044       C  0.59262561  0.02313920  0.63431202     0.36100
C2045       C  0.65496566  0.05492559  0.61930772     0.39500
C2046       C  0.62032793  0.99457231  0.64368191    -0.04000
C2047       C  0.61888869  0.97708491  0.64420571     0.03100
C2048       C  0.61975099  0.96766831  0.62932121    -0.03600
C2049       C  0.62127548  0.97606845  0.61383068     0.00100
C2050       C  0.62187352  0.99363639  0.61328221    -0.02400
C2051       C  0.62053832  0.00405335  0.65908768     0.36800
C2052       C  0.62311150  0.96671466  0.59849316     0.40400
C2053       C  0.61572526  0.96890896  0.66005367     0.39600
C2054       C  0.62283419  0.00223909  0.59734931     0.36500
C2055       C  0.65306752  0.01937762  0.62159094     0.37200
C2056       C  0.59527588  0.05860937  0.63572498     0.40400
N2057       N  0.61293668  0.96267691  0.67280930    -0.37600
N2058       N  0.62072870  0.01166178  0.67134269    -0.39200
N2059       N  0.62477998  0.95948245  0.58612035    -0.37000
N2060       N  0.62361729  0.00915471  0.58466969    -0.39400
N2061       N  0.57996604  0.01664605  0.63699017    -0.39100
N2062       N  0.58384678  0.06648397  0.63965870    -0.36800
N2063       N  0.66744658  0.06120105  0.61550940    -0.37800
N2064       N  0.66481695  0.01130616  0.61937671    -0.39500
C2065       C  0.63027215  0.21223092  0.60707059    -0.04400
C2066       C  0.61972063  0.22134137  0.61765755     0.09700
C2067       C  0.61070619  0.21309180  0.63030414    -0.01800
C2068       C  0.61255363  0.19577451  0.63279733    -0.00100
C2069       C  0.62296957  0.18622264  0.62201085    -0.03700
C2070       C  0.63192108  0.19482396  0.60910010     0.03300
C2071       C  0.61815184  0.23979333  0.61561897     0.10200
C2072       C  0.59911120  0.22250099  0.64051455     0.36100
C2073       C  0.64283948  0.18611262  0.59757517     0.39500
C2074       C  0.60440868  0.24653789  0.60702779    -0.04000
C2075       C  0.60239979  0.26395960  0.60596879     0.03100
C2076       C  0.61444858  0.27477319  0.61298040    -0.03600
C2077       C  0.62843006  0.26793905  0.62121624     0.00100
C2078       C  0.63018947  0.25050839  0.62267281    -0.02400
C2079       C  0.59242265  0.23547032  0.59914053     0.36800
C2080       C  0.64099693  0.27873039  0.62838403     0.40400
C2081       C  0.58796639  0.27054925  0.59743114     0.39600
C2082       C  0.64434030  0.24352474  0.63152771     0.36500
C2083       C  0.63913663  0.22083512  0.59373293     0.37200
C2084       C  0.60382011  0.18818612  0.64678777     0.40400
N2085       N  0.57626323  0.27505904  0.59029454    -0.37600
N2086       N  0.58292300  0.22662885  0.59279046    -0.39200
N2087       N  0.65138387  0.28684000  0.63429653    -0.37000
N2088       N  0.65561299  0.23790626  0.63857563    -0.39400
N2089       N  0.58964018  0.23002126  0.64836476    -0.39100
N2090       N  0.59682645  0.18236562  0.65805201    -0.36800
N2091       N  0.65159774  0.17934326  0.58830790    -0.37800
N2092       N  0.64611964  0.22768625  0.58305787    -0.39500
C2093       C  0.71799954  0.10992757  0.62858737    -0.04400
C2094       C  0.72610320  0.12407310  0.62199827     0.09700
C2095       C  0.71676566  0.13796541  0.61683046    -0.01800
C2096       C  0.69921774  0.13773932  0.61814897    -0.00100
C2097       C  0.69078544  0.12329596  0.62429881    -0.03700
C2098       C  0.70045136  0.10944180  0.62971785     0.03300
C2099       C  0.74462578  0.12430071  0.62051123     0.10200
C2100       C  0.72533338  0.15252408  0.61013164     0.36100
C2101       C  0.69261246  0.09444866  0.63628690     0.39500
C2102       C  0.75224018  0.12047100  0.60514890    -0.04000
C2103       C  0.76976319  0.12021267  0.60383910     0.03100
C2104       C  0.77977173  0.12380809  0.61792084    -0.03600
C2105       C  0.77202118  0.12772669  0.63329022     0.00100
C2106       C  0.75449729  0.12799104  0.63455468    -0.02400
C2107       C  0.74196645  0.11647983  0.59077739     0.36800
C2108       C  0.78195504  0.13200366  0.64775272     0.40400
C2109       C  0.77734197  0.11530289  0.58819344     0.39600
C2110       C  0.74653722  0.13210113  0.65030075     0.36500
C2111       C  0.72783203  0.09574664  0.63405876     0.37200
C2112       C  0.69011231  0.15270424  0.61360593     0.40400
N2113       N  0.78290327  0.11102858  0.57557379    -0.37600
N2114       N  0.73374155  0.11330426  0.57934267    -0.39200
N2115       N  0.78949836  0.13567703  0.65950010    -0.37000
N2116       N  0.74014393  0.13534965  0.66284066    -0.39400
N2117       N  0.73222407  0.16405633  0.60473779    -0.39100
N2118       N  0.68297117  0.16470272  0.60997800    -0.36800
N2119       N  0.68651813  0.08248649  0.64169247    -0.37800
N2120       N  0.73569317  0.08447817  0.63844228    -0.39500
C2121       C  0.63066737  0.10676523  0.71645762    -0.04400
C2122       C  0.62813338  0.12163078  0.72538725     0.09700
C2123       C  0.62580779  0.13677371  0.71677157    -0.01800
C2124       C  0.62581477  0.13704960  0.69916863    -0.00100
C2125       C  0.62773742  0.12202490  0.69006584    -0.03700
C2126       C  0.63017722  0.10684937  0.69888647     0.03300
C2127       C  0.62653856  0.12105513  0.74391277     0.10200
C2128       C  0.62314904  0.15202582  0.72611091     0.36100
C2129       C  0.63129674  0.09109925  0.69005619     0.39500
C2130       C  0.64061337  0.12347289  0.75414605    -0.04000
C2131       C  0.63892671  0.12286351  0.77165552     0.03100
C2132       C  0.62314810  0.11961241  0.77900610    -0.03600
C2133       C  0.60914172  0.11692761  0.76861141     0.00100
C2134       C  0.61083512  0.11772872  0.75114588    -0.02400
C2135       C  0.65682458  0.12652502  0.74659863     0.36800
C2136       C  0.59310482  0.11247337  0.77575116     0.40400
C2137       C  0.65334475  0.12627382  0.78200886     0.39600
C2138       C  0.59646590  0.11481949  0.74050003     0.36500
C2139       C  0.63344249  0.09129518  0.72546243     0.37200
C2140       C  0.62413230  0.15289168  0.69055022     0.40400
N2141       N  0.66500937  0.12926886  0.78998606    -0.37600
N2142       N  0.66976381  0.12891128  0.74057085    -0.39200
N2143       N  0.58019409  0.10864284  0.78105379    -0.37000
N2144       N  0.58507939  0.11245225  0.73193557    -0.39400
N2145       N  0.62098938  0.16414416  0.73361546    -0.39100
N2146       N  0.62280740  0.16556143  0.68373453    -0.36800
N2147       N  0.63211847  0.07851579  0.68305947    -0.37800
N2148       N  0.63570414  0.07899620  0.73268444    -0.39500
C2149       C  0.82065294  0.04333933  0.79368554    -0.04400
C2150       C  0.82317591  0.03519205  0.80911220     0.09700
C2151       C  0.81305043  0.02142589  0.81349695    -0.01800
C2152       C  0.80019475  0.01605693  0.80269071    -0.00100
C2153       C  0.79744887  0.02438274  0.78733497    -0.03700
C2154       C  0.80783015  0.03797990  0.78284002     0.03300
C2155       C  0.83617267  0.04142500  0.82103727     0.10200
C2156       C  0.81605703  0.01270252  0.82909560     0.36100
C2157       C  0.80496141  0.04682699  0.76728793     0.39500
C2158       C  0.83169809  0.05270503  0.83374571    -0.04000
C2159       C  0.84378399  0.05836322  0.84523830     0.03100
C2160       C  0.86039716  0.05239069  0.84440055    -0.03600
C2161       C  0.86504950  0.04192738  0.83101265     0.00100
C2162       C  0.85291521  0.03621271  0.81957400    -0.02400
C2163       C  0.81454352  0.05832466  0.83507837     0.36800
C2164       C  0.88247827  0.03811160  0.82811074     0.40400
C2165       C  0.83899391  0.07021029  0.85803304     0.39600
C2166       C  0.85762579  0.02494145  0.80625919     0.36500
C2167       C  0.83126931  0.05728392  0.78901932     0.37200
C2168       C  0.79014396  0.00162975  0.80716876     0.40400
N2169       N  0.83515933  0.07969707  0.86819584    -0.37600
N2170       N  0.80083481  0.06273471  0.83613622    -0.39200
N2171       N  0.89633964  0.03524252  0.82524124    -0.37000
N2172       N  0.86137330  0.01592949  0.79564322    -0.39400
N2173       N  0.81858488  0.00578222  0.84153172    -0.39100
N2174       N  0.78216292  0.99009451  0.81074145    -0.36800
N2175       N  0.80260438  0.05387825  0.75489048    -0.37800
N2176       N  0.83980062  0.06836345  0.78528205    -0.39500
C2177       C  0.72255826  0.92875753  0.84910148    -0.04400
C2178       C  0.71312209  0.93074275  0.83438925     0.09700
C2179       C  0.69772418  0.92232866  0.83272658    -0.01800
C2180       C  0.69218081  0.91131927  0.84536159    -0.00100
C2181       C  0.70225332  0.90831227  0.85957087    -0.03700
C2182       C  0.71703790  0.91775919  0.86175275     0.03300
C2183       C  0.71919920  0.94202564  0.82074938     0.10200
C2184       C  0.68767254  0.92493328  0.81790183     0.36100
C2185       C  0.72662906  0.91625753  0.87696982     0.39500
C2186       C  0.72806860  0.93547330  0.80704757    -0.04000
C2187       C  0.73337419  0.94602430  0.79393130     0.03100
C2188       C  0.72995577  0.96335639  0.79445128    -0.03600
C2189       C  0.72144866  0.96993231  0.80855990     0.00100
C2190       C  0.71605028  0.95927049  0.82154988    -0.02400
C2191       C  0.73212295  0.91787554  0.80657066     0.36800
C2192       C  0.71807721  0.98765018  0.80989299     0.40400
C2193       C  0.74301669  0.93900540  0.78029597     0.39600
C2194       C  0.70730973  0.96604304  0.83589315     0.36500
C2195       C  0.73795839  0.93809572  0.85119505     0.37200
C2196       C  0.67632319  0.90272454  0.84347987     0.40400
N2197       N  0.75071446  0.93337620  0.76945349    -0.37600
N2198       N  0.73563536  0.90391200  0.80590540    -0.39200
N2199       N  0.71549717  0.00177803  0.81122578    -0.37000
N2200       N  0.70040824  0.97142176  0.84737672    -0.39400
N2201       N  0.67969919  0.92703796  0.80604744    -0.39100
N2202       N  0.66360865  0.89597708  0.84202936    -0.36800
N2203       N  0.73459502  0.91534001  0.88895540    -0.37800
N2204       N  0.75019949  0.94561571  0.85288184    -0.39500
C2205       C  0.82631129  0.90265283  0.71503610    -0.04400
C2206       C  0.82717303  0.91955263  0.71006316     0.09700
C2207       C  0.83957285  0.92462462  0.69854918    -0.01800
C2208       C  0.85143319  0.91309214  0.69261872    -0.00100
C2209       C  0.85077631  0.89619241  0.69779939    -0.03700
C2210       C  0.83769350  0.89093578  0.70849420     0.03300
C2211       C  0.81487161  0.93201984  0.71668575     0.10200
C2212       C  0.84012838  0.94179369  0.69278637     0.36100
C2213       C  0.83505543  0.87337159  0.71187850     0.39500
C2214       C  0.82022934  0.94484540  0.72749309    -0.04000
C2215       C  0.80893449  0.95724423  0.73282342     0.03100
C2216       C  0.79186724  0.95645744  0.72811148    -0.03600
C2217       C  0.78635606  0.94289845  0.71816921     0.00100
C2218       C  0.79791695  0.93119800  0.71194374    -0.02400
C2219       C  0.83744424  0.94523779  0.73315667     0.36800
C2220       C  0.76879722  0.94076815  0.71426744     0.40400
C2221       C  0.81491328  0.97050427  0.74359934     0.39600
C2222       C  0.79240867  0.91849889  0.70028061     0.36500
C2223       C  0.81363666  0.89729246  0.72688184     0.37200
C2224       C  0.86461416  0.91883823  0.68152285     0.40400
N2225       N  0.81973516  0.98110388  0.75212894    -0.37600
N2226       N  0.85118823  0.94551402  0.73760920    -0.39200
N2227       N  0.75477845  0.93868186  0.71143514    -0.37000
N2228       N  0.78801675  0.90839443  0.69096223    -0.39400
N2229       N  0.84059326  0.95550642  0.68826322    -0.39100
N2230       N  0.87516478  0.92345321  0.67274247    -0.36800
N2231       N  0.83234678  0.85943414  0.71454280    -0.37800
N2232       N  0.80346545  0.89301511  0.73625876    -0.39500
C2233       C  0.74626086  0.86152006  0.87994422    -0.04400
C2234       C  0.75543877  0.87286679  0.87002222     0.09700
C2235       C  0.74686880  0.88197628  0.85758356    -0.01800
C2236       C  0.72925476  0.88152887  0.85717681    -0.00100
C2237       C  0.72048148  0.87439156  0.87069210    -0.03700
C2238       C  0.72873831  0.86115246  0.87871611     0.03300
C2239       C  0.77407211  0.87318442  0.87089389     0.10200
C2240       C  0.75602831  0.89151048  0.84519397     0.36100
C2241       C  0.72059421  0.84505390  0.87876727     0.39500
C2242       C  0.78359012  0.86382718  0.85941456    -0.04000
C2243       C  0.80117556  0.86427170  0.86008308     0.03100
C2244       C  0.80931063  0.87386122  0.87238861    -0.03600
C2245       C  0.79983486  0.88292713  0.88409279     0.00100
C2246       C  0.78223143  0.88253016  0.88339526    -0.02400
C2247       C  0.77524168  0.85345707  0.84716168     0.36800
C2248       C  0.80823053  0.89279474  0.89672754     0.40400
C2249       C  0.81094323  0.85472431  0.84822206     0.39600
C2250       C  0.77253183  0.89155296  0.89568311     0.36500
C2251       C  0.75475255  0.84976120  0.89070720     0.37200
C2252       C  0.72079922  0.88330157  0.84135167     0.40400
N2253       N  0.81877645  0.84711810  0.83879040    -0.37600
N2254       N  0.76853362  0.84514673  0.83745038    -0.39200
N2255       N  0.81494488  0.90069420  0.90677389    -0.37000
N2256       N  0.76494383  0.89868828  0.90566154    -0.39400
N2257       N  0.76341623  0.89915266  0.83536117    -0.39100
N2258       N  0.71401677  0.88408921  0.82862921    -0.36800
N2259       N  0.71418198  0.83212345  0.87801607    -0.37800
N2260       N  0.76163437  0.84051043  0.89939143    -0.39500
C2261       C  0.87274778  0.78407238  0.85545590    -0.04400
C2262       C  0.87346037  0.77452385  0.87024657     0.09700
C2263       C  0.87425634  0.78256441  0.88587772    -0.01800
C2264       C  0.87455397  0.80011505  0.88672863    -0.00100
C2265       C  0.87361535  0.80972217  0.87194433    -0.03700
C2266       C  0.87259655  0.80162607  0.85629661     0.03300
C2267       C  0.87327667  0.75592156  0.86946189     0.10200
C2268       C  0.87474158  0.77269664  0.90108423     0.36100
C2269       C  0.87081989  0.81133424  0.84107846     0.39500
C2270       C  0.88816895  0.74690793  0.87183180    -0.04000
C2271       C  0.88779327  0.72934959  0.87248260     0.03100
C2272       C  0.87259454  0.72064213  0.87006196    -0.03600
C2273       C  0.85782488  0.72975867  0.86692892     0.00100
C2274       C  0.85811990  0.74732297  0.86693230    -0.02400
C2275       C  0.90387790  0.75578181  0.87369852     0.36800
C2276       C  0.84241390  0.72114925  0.86295653     0.40400
C2277       C  0.90293138  0.72040127  0.87656338     0.39600
C2278       C  0.84280136  0.75660835  0.86440199     0.36500
C2279       C  0.87222877  0.77578520  0.83938123     0.37200
C2280       C  0.87646385  0.80824980  0.90277650     0.40400
N2281       N  0.91514665  0.71358429  0.88009872    -0.37600
N2282       N  0.91639390  0.76289386  0.87512724    -0.39200
N2283       N  0.83001426  0.71459415  0.85944810    -0.37000
N2284       N  0.83060556  0.76404367  0.86236877    -0.39400
N2285       N  0.87512416  0.76473802  0.91315202    -0.39100
N2286       N  0.87809061  0.81474217  0.91556274    -0.36800
N2287       N  0.86932355  0.81911183  0.82898004    -0.37800
N2288       N  0.87183407  0.76914484  0.82657504    -0.39500
C2289       C  0.96547556  0.85860901  0.86932387    -0.04400
C2290       C  0.97471086  0.87326896  0.87229259     0.09700
C2291       C  0.96633165  0.88824202  0.87594682    -0.01800
C2292       C  0.94871267  0.88864488  0.87653918    -0.00100
C2293       C  0.93926898  0.87394532  0.87349140    -0.03700
C2294       C  0.94786821  0.85884405  0.87011016     0.03300
C2295       C  0.99336357  0.87302120  0.87141299     0.10200
C2296       C  0.97595210  0.90333650  0.87878249     0.36100
C2297       C  0.93874654  0.84332406  0.86794577     0.39500
C2298       C  0.00150512  0.87543028  0.85598591    -0.04000
C2299       C  0.01908840  0.87594959  0.85522603     0.03100
C2300       C  0.02869697  0.87375705  0.86989276    -0.03600
C2301       C  0.02045188  0.87091619  0.88526542     0.00100
C2302       C  0.00285774  0.87074550  0.88604132    -0.02400
C2303       C  0.99170706  0.87770324  0.84092979     0.36800
C2304       C  0.03001359  0.86758095  0.90022973     0.40400
C2305       C  0.02715405  0.87977849  0.83946637     0.39600
C2306       C  0.99445943  0.86829698  0.90191993     0.36500
C2307       C  0.97417544  0.84328145  0.86530709     0.37200
C2308       C  0.94045536  0.90438722  0.87980233     0.40400
N2309       N  0.03322837  0.88311340  0.82676359    -0.37600
N2310       N  0.98386690  0.87949824  0.82893643    -0.39200
N2311       N  0.03743264  0.86467555  0.91227355    -0.37000
N2312       N  0.98775322  0.86640653  0.91459746    -0.39400
N2313       N  0.98370321  0.91533054  0.88099207    -0.39100
N2314       N  0.93394652  0.91697401  0.88245759    -0.36800
N2315       N  0.93150063  0.83093056  0.86624032    -0.37800
N2316       N  0.98113989  0.83110116  0.86201076    -0.39500
C2317       C  0.86101817  0.87100359  0.96465373    -0.04400
C2318       C  0.87650819  0.87313115  0.97268994     0.09700
C2319       C  0.89126977  0.87472931  0.96325726    -0.01800
C2320       C  0.89053354  0.87479920  0.94572139    -0.00100
C2321       C  0.87494017  0.87320548  0.93751192    -0.03700
C2322       C  0.86019604  0.87094699  0.94708890     0.03300
C2323       C  0.87734780  0.87400257  0.99119776     0.10200
C2324       C  0.90724143  0.87620052  0.97169725     0.36100
C2325       C  0.84410310  0.86892767  0.93899810     0.39500
C2326       C  0.88094002  0.85958409  0.00055173    -0.04000
C2327       C  0.88249821  0.86059504  0.01800512     0.03100
C2328       C  0.87980157  0.87592176  0.02625550    -0.03600
C2329       C  0.87618702  0.89036475  0.01676474     0.00100
C2330       C  0.87514459  0.88941319  0.99926451    -0.02400
C2331       C  0.88299703  0.84372216  0.99213867     0.36800
C2332       C  0.87254250  0.90604567  0.02489342     0.40400
C2333       C  0.88745191  0.84595506  0.02736936     0.39600
C2334       C  0.87162608  0.90426055  0.98949127     0.36500
C2335       C  0.84594084  0.86893685  0.97453095     0.37200
C2336       C  0.90595436  0.87596407  0.93621130     0.40400
N2337       N  0.89161801  0.83418056  0.03461275    -0.37600
N2338       N  0.88456681  0.83109438  0.98536490    -0.39200
N2339       N  0.86928340  0.91872379  0.03092249    -0.37000
N2340       N  0.86882481  0.91608288  0.98167830    -0.39400
N2341       N  0.91993627  0.87727203  0.97850771    -0.39100
N2342       N  0.91824865  0.87689638  0.92863593    -0.36800
N2343       N  0.83127195  0.86719951  0.93257763    -0.37800
N2344       N  0.83392747  0.86728612  0.98242326    -0.39500
C2345       C  0.85920212  0.87662141  0.78232229    -0.04400
C2346       C  0.87405646  0.87304101  0.77365548     0.09700
C2347       C  0.88876364  0.86928103  0.78244815    -0.01800
C2348       C  0.88877546  0.86945013  0.80001069    -0.00100
C2349       C  0.87391683  0.87331750  0.80889826    -0.03700
C2350       C  0.85903231  0.87661198  0.79988865     0.03300
C2351       C  0.87428003  0.87355591  0.75512401     0.10200
C2352       C  0.90395611  0.86545603  0.77332200     0.36100
C2353       C  0.84335044  0.87949051  0.80853446     0.39500
C2354       C  0.87732969  0.88875449  0.74683140    -0.04000
C2355       C  0.87745740  0.88934304  0.72928613     0.03100
C2356       C  0.87428346  0.87474017  0.71994290    -0.03600
C2357       C  0.87120154  0.85950630  0.72839074     0.00100
C2358       C  0.87136041  0.85891224  0.74594172    -0.02400
C2359       C  0.88048447  0.90375176  0.75644733     0.36800
C2360       C  0.86702543  0.84455269  0.71918478     0.40400
C2361       C  0.88158854  0.90487223  0.72097019     0.39600
C2362       C  0.86839606  0.84327164  0.75463736     0.36500
C2363       C  0.84410169  0.88039104  0.77305833     0.37200
C2364       C  0.90428127  0.86604521  0.80874866     0.40400
N2365       N  0.88516101  0.91741343  0.71471725    -0.37600
N2366       N  0.88298664  0.91566932  0.76417920    -0.39200
N2367       N  0.86338174  0.83242565  0.71227066    -0.37000
N2368       N  0.86607602  0.83081953  0.76161628    -0.39400
N2369       N  0.91604078  0.86240660  0.76601097    -0.39100
N2370       N  0.91663733  0.86323821  0.81568056    -0.36800
N2371       N  0.83082033  0.88178564  0.81537095    -0.37800
N2372       N  0.83211313  0.88343446  0.76561270    -0.39500
C2373       C  0.87378266  0.96554618  0.85566404    -0.04400
C2374       C  0.87570628  0.97488571  0.87041173     0.09700
C2375       C  0.87687088  0.96665503  0.88593160    -0.01800
C2376       C  0.87638831  0.94907431  0.88672250    -0.00100
C2377       C  0.87464967  0.93956391  0.87192118    -0.03700
C2378       C  0.87324490  0.94797046  0.85636787     0.03300
C2379       C  0.87691875  0.99347028  0.86956714     0.10200
C2380       C  0.87856609  0.97638649  0.90109393     0.36100
C2381       C  0.87181049  0.93862192  0.84093753     0.39500
C2382       C  0.86272204  0.00335980  0.87255568    -0.04000
C2383       C  0.86400847  0.02089769  0.87216665     0.03100
C2384       C  0.87946315  0.02868057  0.86843581    -0.03600
C2385       C  0.89358049  0.01866725  0.86511720     0.00100
C2386       C  0.89235002  0.00115030  0.86589749    -0.02400
C2387       C  0.84680870  0.99542086  0.87616981     0.36800
C2388       C  0.90925708  0.02624732  0.86015347     0.40400
C2389       C  0.84952927  0.03081777  0.87635148     0.39600
C2390       C  0.90699035  0.99094994  0.86294970     0.36500
C2391       C  0.87247406  0.97411212  0.83972995     0.37200
C2392       C  0.87725861  0.94088353  0.90287084     0.40400
N2393       N  0.83779200  0.03837242  0.87999232    -0.37600
N2394       N  0.83412333  0.98907063  0.87905525    -0.39200
N2395       N  0.92188600  0.03186841  0.85585702    -0.37000
N2396       N  0.91865725  0.98279299  0.86062663    -0.39400
N2397       N  0.87985174  0.98425208  0.91312138    -0.39100
N2398       N  0.87797985  0.93439301  0.91577376    -0.36800
N2399       N  0.87063198  0.93118968  0.82862340    -0.37800
N2400       N  0.87145912  0.98100097  0.82705671    -0.39500
C2401       C  0.01754798  0.81833140  0.80466262    -0.04400
C2402       C  0.02957673  0.81338920  0.81651741     0.09700
C2403       C  0.03478279  0.79661466  0.81713880    -0.01800
C2404       C  0.02830266  0.78490957  0.80572808    -0.00100
C2405       C  0.01725775  0.79009852  0.79290430    -0.03700
C2406       C  0.01163047  0.80685722  0.79271107     0.03300
C2407       C  0.03721253  0.82600892  0.82797019     0.10200
C2408       C  0.04711312  0.79145427  0.82936359     0.36100
C2409       C  0.99937143  0.81229482  0.78053752     0.39500
C2410       C  0.03362737  0.82571525  0.84522469    -0.04000
C2411       C  0.04125806  0.83734193  0.85596990     0.03100
C2412       C  0.05129153  0.85030157  0.84937552    -0.03600
C2413       C  0.05546622  0.85014782  0.83219030     0.00100
C2414       C  0.04852457  0.83797595  0.82157238    -0.02400
C2415       C  0.02198844  0.81350051  0.85191862     0.36800
C2416       C  0.06662003  0.86269204  0.82526446     0.40400
C2417       C  0.03995481  0.83499664  0.87386112     0.39600
C2418       C  0.05290590  0.83782499  0.80397887     0.36500
C2419       C  0.01125175  0.83528820  0.80483275     0.37200
C2420       C  0.03320930  0.76758333  0.80730682     0.40400
N2421       N  0.03916901  0.83253071  0.88808036    -0.37600
N2422       N  0.01270726  0.80375064  0.85725471    -0.39200
N2423       N  0.07552484  0.87266159  0.81969352    -0.37000
N2424       N  0.05631710  0.83770218  0.78993230    -0.39400
N2425       N  0.05689269  0.78735178  0.83916117    -0.39100
N2426       N  0.03694383  0.75375048  0.80896484    -0.36800
N2427       N  0.98962109  0.81665616  0.77081876    -0.37800
N2428       N  0.00624940  0.84881066  0.80503654    -0.39500
C2429       C  0.94896769  0.81722140  0.70852899    -0.04400
C2430       C  0.93311456  0.81880641  0.71602372     0.09700
C2431       C  0.92847557  0.80808905  0.72924630    -0.01800
C2432       C  0.93958930  0.79565379  0.73484013    -0.00100
C2433       C  0.95549233  0.79398283  0.72729679    -0.03700
C2434       C  0.96017670  0.80495040  0.71419791     0.03300
C2435       C  0.92104388  0.83139708  0.70949163     0.10200
C2436       C  0.91221417  0.80989746  0.73704141     0.36100
C2437       C  0.97633434  0.80330587  0.70611696     0.39500
C2438       C  0.90866696  0.82649350  0.69800669    -0.04000
C2439       C  0.89733418  0.83830717  0.69164001     0.03100
C2440       C  0.89811553  0.85511701  0.69697215    -0.03600
C2441       C  0.91116911  0.86015436  0.70774113     0.00100
C2442       C  0.92238590  0.84826260  0.71423301    -0.02400
C2443       C  0.90756195  0.80919123  0.69285550     0.36800
C2444       C  0.91391040  0.87765822  0.71124941     0.40400
C2445       C  0.88460605  0.83297999  0.67991198     0.39600
C2446       C  0.93537995  0.85334197  0.72577794     0.36500
C2447       C  0.95358032  0.82803831  0.69470641     0.37200
C2448       C  0.93480076  0.78491570  0.74866391     0.40400
N2449       N  0.87445258  0.82869905  0.67057492    -0.37600
N2450       N  0.90671223  0.79536386  0.68883666    -0.39200
N2451       N  0.91667171  0.89155343  0.71399675    -0.37000
N2452       N  0.94575654  0.85735775  0.73498794    -0.39400
N2453       N  0.89921874  0.81137401  0.74320011    -0.39100
N2454       N  0.93097926  0.77635080  0.75969121    -0.36800
N2455       N  0.98923525  0.80200988  0.69971413    -0.37800
N2456       N  0.95721584  0.83665673  0.68366265    -0.39500
C2457       C  0.94141315  0.72501565  0.81651564    -0.04400
C2458       C  0.93046609  0.71204744  0.81177621     0.09700
C2459       C  0.93188897  0.70494648  0.79574196    -0.01800
C2460       C  0.94399325  0.71098868  0.78436503    -0.00100
C2461       C  0.95485791  0.72414193  0.78899449    -0.03700
C2462       C  0.95357885  0.73103820  0.80520259     0.03300
C2463       C  0.91730686  0.70601913  0.82370587     0.10200
C2464       C  0.92089956  0.69134725  0.79101969     0.36100
C2465       C  0.96431779  0.74480337  0.81006112     0.39500
C2466       C  0.90083508  0.71208754  0.82255499    -0.04000
C2467       C  0.88853746  0.70677113  0.83407598     0.03100
C2468       C  0.89288096  0.69620756  0.84754567    -0.03600
C2469       C  0.90931705  0.68967735  0.84828750     0.00100
C2470       C  0.92135801  0.69438054  0.83625912    -0.02400
C2471       C  0.89656412  0.72382314  0.80944020     0.36800
C2472       C  0.91410330  0.67849192  0.86171588     0.40400
C2473       C  0.87126774  0.71124244  0.83121850     0.39600
C2474       C  0.93795476  0.68719072  0.83670751     0.36500
C2475       C  0.93994125  0.73230833  0.83301353     0.37200
C2476       C  0.94552501  0.70336193  0.76802959     0.40400
N2477       N  0.85755103  0.71471329  0.82835580    -0.37600
N2478       N  0.89320138  0.73320799  0.79898184    -0.39200
N2479       N  0.91795370  0.66960728  0.87244148    -0.37000
N2480       N  0.95115559  0.68136054  0.83696029    -0.39400
N2481       N  0.91211601  0.68049015  0.78729806    -0.39100
N2482       N  0.94677268  0.69727763  0.75500073    -0.36800
N2483       N  0.97286650  0.75579835  0.81392830    -0.37800
N2484       N  0.93870788  0.73805986  0.84619373    -0.39500
C2485       C  0.06933885  0.70412062  0.78106807    -0.04400
C2486       C  0.07004626  0.68732108  0.77595610     0.09700
C2487       C  0.05830526  0.68122155  0.76432333    -0.01800
C2488       C  0.04514956  0.69152453  0.75881910    -0.00100
C2489       C  0.04423476  0.70825840  0.76423626    -0.03700
C2490       C  0.05692017  0.71472330  0.77464120     0.03300
C2491       C  0.08264803  0.67583994  0.78349480     0.10200
C2492       C  0.05973096  0.66428404  0.75817230     0.36100
C2493       C  0.05785699  0.73249625  0.77783818     0.39500
C2494       C  0.07767720  0.66452283  0.79607006    -0.04000
C2495       C  0.08944491  0.65371385  0.80337237     0.03100
C2496       C  0.10633649  0.65411405  0.79810771    -0.03600
C2497       C  0.11146023  0.66624440  0.78629935     0.00100
C2498       C  0.09958364  0.67677169  0.77870722    -0.02400
C2499       C  0.06039906  0.66413827  0.80157937     0.36800
C2500       C  0.12904253  0.66896433  0.78295665     0.40400
C2501       C  0.08402453  0.64205912  0.81618431     0.39600
C2502       C  0.10478501  0.68871295  0.76607045     0.36500
C2503       C  0.08115550  0.71038847  0.79326516     0.37200
C2504       C  0.03225366  0.68468995  0.74812460     0.40400
N2505       N  0.07964849  0.63277946  0.82639603    -0.37600
N2506       N  0.04660416  0.66390170  0.80591590    -0.39200
N2507       N  0.14299853  0.67174796  0.78036574    -0.37000
N2508       N  0.10891148  0.69826711  0.75600994    -0.39400
N2509       N  0.06097047  0.65079858  0.75321991    -0.39100
N2510       N  0.02191266  0.67913643  0.73971087    -0.36800
N2511       N  0.05891534  0.74672545  0.77997286    -0.37800
N2512       N  0.09052226  0.71532835  0.80308318    -0.39500
C2513       C  0.09991311  0.78456924  0.67636312    -0.04400
C2514       C  0.08346962  0.79020702  0.67365859     0.09700
C2515       C  0.08023853  0.80162356  0.66065030    -0.01800
C2516       C  0.09333721  0.80718194  0.65022406    -0.00100
C2517       C  0.10966269  0.80077228  0.65226221    -0.03700
C2518       C  0.11298587  0.78985522  0.66573033     0.03300
C2519       C  0.06950187  0.78423856  0.68462165     0.10200
C2520       C  0.06332673  0.80742371  0.65784587     0.36100
C2521       C  0.12995200  0.78483520  0.66938616     0.39500
C2522       C  0.06358007  0.79435247  0.69768149    -0.04000
C2523       C  0.05035366  0.78880652  0.70801152     0.03100
C2524       C  0.04266908  0.77301523  0.70520584    -0.03600
C2525       C  0.04851477  0.76312424  0.69165427     0.00100
C2526       C  0.06208339  0.76857615  0.68175424    -0.02400
C2527       C  0.07144520  0.81040201  0.70069218     0.36800
C2528       C  0.04045012  0.74745626  0.68739668     0.40400
C2529       C  0.04514965  0.79937603  0.72173938     0.39600
C2530       C  0.06865642  0.75792158  0.66868748     0.36500
C2531       C  0.10335706  0.77344322  0.69024105     0.37200
C2532       C  0.08987325  0.81923795  0.63714384     0.40400
N2533       N  0.04106026  0.80789695  0.73264011    -0.37600
N2534       N  0.07775506  0.82318413  0.70304953    -0.39200
N2535       N  0.03406491  0.73496663  0.68392396    -0.37000
N2536       N  0.07405363  0.74934891  0.65842375    -0.39400
N2537       N  0.04981776  0.81200352  0.65562255    -0.39100
N2538       N  0.08710289  0.82881815  0.62668397    -0.36800
N2539       N  0.14339005  0.78084813  0.67282755    -0.37800
N2540       N  0.10606241  0.76458549  0.70133563    -0.39500
C2541       C  0.94685070  0.65822730  0.67249379    -0.04400
C2542       C  0.95551269  0.67207109  0.66585584     0.09700
C2543       C  0.95753127  0.67362565  0.64843554    -0.01800
C2544       C  0.95143529  0.66106527  0.63771222    -0.00100
C2545       C  0.94384924  0.64656937  0.64441558    -0.03700
C2546       C  0.94093433  0.64556977  0.66182656     0.03300
C2547       C  0.96253072  0.68501080  0.67731903     0.10200
C2548       C  0.96581092  0.68824730  0.64159564     0.36100
C2549       C  0.93215338  0.63133449  0.66887664     0.39500
C2550       C  0.97902259  0.68354932  0.68316841    -0.04000
C2551       C  0.98552582  0.69530093  0.69455536     0.03100
C2552       C  0.97536805  0.70856400  0.70056128    -0.03600
C2553       C  0.95890390  0.71020291  0.69407687     0.00100
C2554       C  0.95260887  0.69848710  0.68252789    -0.02400
C2555       C  0.98924892  0.66972263  0.67754046     0.36800
C2556       C  0.94841073  0.72415321  0.69878410     0.40400
C2557       C  0.00269303  0.69341901  0.70000269     0.39600
C2558       C  0.93584416  0.70025496  0.67590104     0.36500
C2559       C  0.94418880  0.65696707  0.69037156     0.37200
C2560       C  0.95185847  0.66376834  0.61983544     0.40400
N2561       N  0.01647714  0.69193905  0.70406164    -0.37600
N2562       N  0.99734233  0.65867130  0.67304636    -0.39200
N2563       N  0.93996985  0.73523967  0.70249137    -0.37000
N2564       N  0.92250430  0.70163519  0.67053977    -0.39400
N2565       N  0.97242124  0.69993570  0.63619516    -0.39100
N2566       N  0.95198309  0.66654076  0.60565210    -0.36800
N2567       N  0.92518746  0.61994793  0.67447707    -0.37800
N2568       N  0.94204466  0.65600982  0.70463453    -0.39500
C2569       C  0.13471349  0.63850529  0.53261141    -0.04400
C2570       C  0.13158579  0.62359459  0.52391855     0.09700
C2571       C  0.12784082  0.60887675  0.53280104    -0.01800
C2572       C  0.12653128  0.60914953  0.55035098    -0.00100
C2573       C  0.12895242  0.62427461  0.55924801    -0.03700
C2574       C  0.13364460  0.63885784  0.55020517     0.03300
C2575       C  0.13209803  0.62326814  0.50528658     0.10200
C2576       C  0.12532472  0.59340177  0.52375438     0.36100
C2577       C  0.13734160  0.65435321  0.55876949     0.39500
C2578       C  0.14683436  0.61858329  0.49694170    -0.04000
C2579       C  0.14686450  0.61674571  0.47944445     0.03100
C2580       C  0.13216137  0.61976028  0.47013740    -0.03600
C2581       C  0.11757165  0.62500949  0.47855225     0.00100
C2582       C  0.11753742  0.62669425  0.49606518    -0.02400
C2583       C  0.16186753  0.61529902  0.50648064     0.36800
C2584       C  0.10263196  0.62906233  0.46927271     0.40400
C2585       C  0.16180088  0.61072170  0.47127475     0.39600
C2586       C  0.10246438  0.63181962  0.50469523     0.36500
C2587       C  0.13888261  0.65353921  0.52334200     0.37200
C2588       C  0.12325437  0.59362234  0.55914830     0.40400
N2589       N  0.17386591  0.60557386  0.46524780    -0.37600
N2590       N  0.17383720  0.61269276  0.51412346    -0.39200
N2591       N  0.09053173  0.63261187  0.46224889    -0.37000
N2592       N  0.09046932  0.63592528  0.51161543    -0.39400
N2593       N  0.12339528  0.58110981  0.51645718    -0.39100
N2594       N  0.12065291  0.58121708  0.56611993    -0.36800
N2595       N  0.14058206  0.66670433  0.56548966    -0.37800
N2596       N  0.14216263  0.66551287  0.51591294    -0.39500
C2597       C  0.10656751  0.53309592  0.62526456    -0.04400
C2598       C  0.12195781  0.52459299  0.62436642     0.09700
C2599       C  0.13690319  0.53372875  0.62226694    -0.01800
C2600       C  0.13646657  0.55126072  0.62097965    -0.00100
C2601       C  0.12116167  0.55986136  0.62267727    -0.03700
C2602       C  0.10619862  0.55068901  0.62486333     0.03300
C2603       C  0.12247078  0.50601994  0.62626904     0.10200
C2604       C  0.15277406  0.52506705  0.62180065     0.36100
C2605       C  0.09055881  0.55930780  0.62772353     0.39500
C2606       C  0.12488949  0.49572800  0.61223860    -0.04000
C2607       C  0.12534154  0.47823115  0.61412958     0.03100
C2608       C  0.12274957  0.47082613  0.62999750    -0.03600
C2609       C  0.12030528  0.48124662  0.64401697     0.00100
C2610       C  0.12055357  0.49873990  0.64219763    -0.02400
C2611       C  0.12696208  0.50320999  0.59584965     0.36800
C2612       C  0.11650638  0.47414055  0.66021640     0.40400
C2613       C  0.12913616  0.46795005  0.59979208     0.39600
C2614       C  0.11889249  0.50933885  0.65676264     0.36500
C2615       C  0.09112582  0.52368262  0.62674817     0.37200
C2616       C  0.15174634  0.56042454  0.61748916     0.40400
N2617       N  0.13243543  0.46002792  0.58819862    -0.37600
N2618       N  0.12865041  0.50923915  0.58280859    -0.39200
N2619       N  0.11308335  0.46895197  0.67327899    -0.37000
N2620       N  0.11764822  0.51782460  0.66835957    -0.39400
N2621       N  0.16541550  0.51811657  0.62151410    -0.39100
N2622       N  0.16388092  0.56776575  0.61457157    -0.36800
N2623       N  0.07809936  0.56612769  0.63026530    -0.37800
N2624       N  0.07882829  0.51613300  0.62786799    -0.39500
C2625       C  0.02943391  0.61337224  0.61119177    -0.04400
C2626       C  0.02115454  0.62742910  0.61762218     0.09700
C2627       C  0.03039658  0.64124589  0.62327431    -0.01800
C2628       C  0.04797271  0.64076233  0.62318791    -0.00100
C2629       C  0.05645269  0.62611361  0.61799259    -0.03700
C2630       C  0.04701210  0.61257583  0.61153288     0.03300
C2631       C  0.00266298  0.62715858  0.61956550     0.10200
C2632       C  0.02171851  0.65587744  0.62942022     0.36100
C2633       C  0.05514007  0.59750856  0.60575668     0.39500
C2634       C  0.99563839  0.62309222  0.63520015    -0.04000
C2635       C  0.97818943  0.62225495  0.63709331     0.03100
C2636       C  0.96768239  0.62488969  0.62319558    -0.03600
C2637       C  0.97477893  0.62916911  0.60759168     0.00100
C2638       C  0.99223214  0.63051593  0.60583925    -0.02400
C2639       C  0.00645589  0.61928617  0.64922528     0.36800
C2640       C  0.96414659  0.63251570  0.59338195     0.40400
C2641       C  0.97122303  0.61787686  0.65321052     0.39600
C2642       C  0.99951866  0.63530900  0.58993552     0.36500
C2643       C  0.01975244  0.59956977  0.60453184     0.37200
C2644       C  0.05719817  0.65557212  0.62812163     0.40400
N2645       N  0.96618148  0.61413654  0.66624455    -0.37600
N2646       N  0.01512348  0.61619331  0.66035231    -0.39200
N2647       N  0.95590645  0.63543969  0.58189207    -0.37000
N2648       N  0.00535705  0.63916524  0.57726806    -0.39400
N2649       N  0.01474453  0.66748394  0.63436471    -0.39100
N2650       N  0.06451418  0.66741011  0.63201939    -0.36800
N2651       N  0.06150029  0.58546627  0.60103601    -0.37800
N2652       N  0.01197515  0.58867387  0.59910334    -0.39500
C2653       C  0.21091885  0.62777331  0.64501009    -0.04400
C2654       C  0.22040317  0.63126921  0.63058172     0.09700
C2655       C  0.21234673  0.63463470  0.61532906    -0.01800
C2656       C  0.19482456  0.63368236  0.61425296    -0.00100
C2657       C  0.18522538  0.62943573  0.62854213    -0.03700
C2658       C  0.19335714  0.62685496  0.64403381     0.03300
C2659       C  0.23896767  0.63016510  0.63103201     0.10200
C2660       C  0.22220499  0.63875971  0.60064731     0.36100
C2661       C  0.18370947  0.62358146  0.65906115     0.39500
C2662       C  0.24676297  0.61492639  0.62720476    -0.04000
C2663       C  0.26430680  0.61395387  0.62642975     0.03100
C2664       C  0.27419131  0.62823848  0.62962134    -0.03600
C2665       C  0.26626905  0.64337897  0.63394012     0.00100
C2666       C  0.24871042  0.64434587  0.63457357    -0.02400
C2667       C  0.23660490  0.60027253  0.62390430     0.36800
C2668       C  0.27611844  0.65780577  0.63856183     0.40400
C2669       C  0.27197963  0.59832928  0.62177789     0.39600
C2670       C  0.24061216  0.65988758  0.63896986     0.36500
C2671       C  0.21931878  0.62502122  0.66081272     0.37200
C2672       C  0.18683010  0.63638330  0.59821304     0.40400
N2673       N  0.27759381  0.58564787  0.61785947    -0.37600
N2674       N  0.22841049  0.58864965  0.62131863    -0.39200
N2675       N  0.28361459  0.66944665  0.64267351    -0.37000
N2676       N  0.23415021  0.67226967  0.64252939    -0.39400
N2677       N  0.23010759  0.64206718  0.58898015    -0.39100
N2678       N  0.18043995  0.63856259  0.58544152    -0.36800
N2679       N  0.17601986  0.62097591  0.67104591    -0.37800
N2680       N  0.22607212  0.62289803  0.67340207    -0.39500
C2681       C  0.13956141  0.74882394  0.63167362    -0.04400
C2682       C  0.12372481  0.74208750  0.62794336     0.09700
C2683       C  0.11026581  0.75279851  0.62443695    -0.01800
C2684       C  0.11273174  0.77018212  0.62420022    -0.00100
C2685       C  0.12845062  0.77703816  0.62843695    -0.03700
C2686       C  0.14180347  0.76622594  0.63236263     0.03300
C2687       C  0.12126462  0.72365189  0.62751026     0.10200
C2688       C  0.09383389  0.74586484  0.62112527     0.36100
C2689       C  0.15760712  0.77280206  0.63815535     0.39500
C2690       C  0.12120717  0.71434798  0.64248705    -0.04000
C2691       C  0.11983845  0.69683982  0.64197938     0.03100
C2692       C  0.11801593  0.68860225  0.62648470    -0.03600
C2693       C  0.11714216  0.69806515  0.61159561     0.00100
C2694       C  0.11915857  0.71549097  0.61207480    -0.02400
C2695       C  0.12292827  0.72281425  0.65839698     0.36800
C2696       C  0.11371202  0.68994037  0.59579699     0.40400
C2697       C  0.12125498  0.68734721  0.65735098     0.39600
C2698       C  0.11940537  0.72503356  0.59664732     0.36500
C2699       C  0.15354139  0.73779932  0.63493162     0.37200
C2700       C  0.09914231  0.78083107  0.61900671     0.40400
N2701       N  0.12253828  0.67987104  0.66965510    -0.37600
N2702       N  0.12439434  0.72959788  0.67104989    -0.39200
N2703       N  0.11077941  0.68351060  0.58321682    -0.37000
N2704       N  0.11959755  0.73270076  0.58438514    -0.39400
N2705       N  0.08075586  0.74027701  0.61850110    -0.39100
N2706       N  0.08801129  0.78882904  0.61451359    -0.36800
N2707       N  0.17031196  0.77739847  0.64327805    -0.37800
N2708       N  0.16466868  0.72900687  0.63757106    -0.39500
C2709       C  0.11492121  0.63691673  0.71550258    -0.04400
C2710       C  0.12364656  0.62439641  0.72416396     0.09700
C2711       C  0.13030909  0.61075923  0.71540170    -0.01800
C2712       C  0.12854381  0.60974688  0.69790334    -0.00100
C2713       C  0.12000755  0.62248963  0.68891917    -0.03700
C2714       C  0.11266481  0.63579974  0.69809674     0.03300
C2715       C  0.12489682  0.62517904  0.74274256     0.10200
C2716       C  0.13893406  0.59768548  0.72450480     0.36100
C2717       C  0.10247833  0.64837952  0.69000028     0.39500
C2718       C  0.11070189  0.62164575  0.75257686    -0.04000
C2719       C  0.11139026  0.62342256  0.77002452     0.03100
C2720       C  0.12642943  0.62828985  0.77784758    -0.03600
C2721       C  0.14081059  0.63128560  0.76799468     0.00100
C2722       C  0.13997429  0.62995928  0.75046679    -0.02400
C2723       C  0.09535426  0.61613626  0.74466331     0.36800
C2724       C  0.15631676  0.63642494  0.77574390     0.40400
C2725       C  0.09668147  0.61967618  0.77989883     0.39600
C2726       C  0.15449706  0.63388738  0.74031383     0.36500
C2727       C  0.10833965  0.65110571  0.72462129     0.37200
C2728       C  0.13505929  0.59515237  0.68944452     0.40400
N2729       N  0.08478504  0.61636831  0.78744973    -0.37600
N2730       N  0.08313820  0.61175627  0.73830961    -0.39200
N2731       N  0.16882310  0.64070317  0.78158599    -0.37000
N2732       N  0.16606803  0.63702835  0.73220010    -0.39400
N2733       N  0.14585027  0.58732646  0.73180105    -0.39100
N2734       N  0.14026561  0.58347690  0.68277684    -0.36800
N2735       N  0.09406408  0.65831672  0.68377411    -0.37800
N2736       N  0.10313919  0.66238625  0.73193475    -0.39500
C2737       C  0.82339391  0.80851539  0.01901119    -0.04400
C2738       C  0.81984350  0.81884391  0.03280305     0.09700
C2739       C  0.80422801  0.81738333  0.04088386    -0.01800
C2740       C  0.79219315  0.80577072  0.03518252    -0.00100
C2741       C  0.79558872  0.79555333  0.02118779    -0.03700
C2742       C  0.81132721  0.79699349  0.01316673     0.03300
C2743       C  0.83245385  0.83149009  0.03869447     0.10200
C2744       C  0.80062415  0.82783903  0.05518270     0.36100
C2745       C  0.81493754  0.78704452  0.99849815     0.39500
C2746       C  0.83176052  0.84807942  0.03286196    -0.04000
C2747       C  0.84333722  0.86011793  0.03862765     0.03100
C2748       C  0.85638077  0.85550365  0.04962310    -0.03600
C2749       C  0.85659989  0.83894609  0.05596433     0.00100
C2750       C  0.84463431  0.82708715  0.05059854    -0.02400
C2751       C  0.81877002  0.85282519  0.02119417     0.36800
C2752       C  0.86918886  0.83394876  0.06796507     0.40400
C2753       C  0.84074531  0.87746497  0.03435488     0.39600
C2754       C  0.84461578  0.81036421  0.05754485     0.36500
C2755       C  0.83948884  0.80984854  0.01077345     0.37200
C2756       C  0.77657987  0.80391618  0.04420310     0.40400
N2757       N  0.83803372  0.89123544  0.03101299    -0.37600
N2758       N  0.80834063  0.85653813  0.01192834    -0.39200
N2759       N  0.87915986  0.82991907  0.07760030    -0.37000
N2760       N  0.84446352  0.79705231  0.06316241    -0.39400
N2761       N  0.79782515  0.83621957  0.06658292    -0.39100
N2762       N  0.76420993  0.80240536  0.05155247    -0.36800
N2763       N  0.81776106  0.77911614  0.98677860    -0.37800
N2764       N  0.85235484  0.81088846  0.00423988    -0.39500
C2765       C  0.81053637  0.73495051  0.92990817    -0.04400
C2766       C  0.81696672  0.71870196  0.93202930     0.09700
C2767       C  0.81183207  0.70900513  0.94587083    -0.01800
C2768       C  0.80006504  0.71537549  0.95730651    -0.00100
C2769       C  0.79354422  0.73158459  0.95511360    -0.03700
C2770       C  0.79901609  0.74145218  0.94153823     0.03300
C2771       C  0.82897610  0.71172852  0.91950399     0.10200
C2772       C  0.81867772  0.69245795  0.94832468     0.36100
C2773       C  0.79339630  0.75855123  0.93997751     0.39500
C2774       C  0.84594934  0.71649520  0.91975636    -0.04000
C2775       C  0.85720385  0.71003152  0.90782963     0.03100
C2776       C  0.85139060  0.69943574  0.89497286    -0.03600
C2777       C  0.83442256  0.69429399  0.89509747     0.00100
C2778       C  0.82335115  0.70028665  0.90740484    -0.02400
C2779       C  0.85186905  0.72784559  0.93253989     0.36800
C2780       C  0.82815734  0.68305469  0.88237424     0.40400
C2781       C  0.87490039  0.71327013  0.90974412     0.39600
C2782       C  0.80611933  0.69461686  0.90770779     0.36500
C2783       C  0.81577691  0.74493406  0.91569394     0.37200
C2784       C  0.79441831  0.70513280  0.97119680     0.40400
N2785       N  0.88897349  0.71578874  0.91187014    -0.37600
N2786       N  0.85654719  0.73694485  0.94271617    -0.39200
N2787       N  0.82310634  0.67413786  0.87221229    -0.37000
N2788       N  0.79241998  0.68997827  0.90812070    -0.39400
N2789       N  0.82412640  0.67924820  0.95027772    -0.39100
N2790       N  0.78985770  0.69700899  0.98227914    -0.36800
N2791       N  0.78913587  0.77228172  0.93884962    -0.37800
N2792       N  0.82000797  0.75284101  0.90433165    -0.39500
C2793       C  0.72673987  0.81032113  0.92943466    -0.04400
C2794       C  0.71605433  0.82281457  0.93565359     0.09700
C2795       C  0.71080994  0.82220203  0.95244501    -0.01800
C2796       C  0.71657760  0.80945024  0.96312913    -0.00100
C2797       C  0.72783049  0.79721093  0.95712437    -0.03700
C2798       C  0.73258259  0.79755197  0.94008052     0.03300
C2799       C  0.71035677  0.83675100  0.92459338     0.10200
C2800       C  0.69935244  0.83472328  0.95867142     0.36100
C2801       C  0.74374494  0.78499147  0.93342147     0.39500
C2802       C  0.69593466  0.83486651  0.91465867    -0.04000
C2803       C  0.69088339  0.84786858  0.90388086     0.03100
C2804       C  0.70023963  0.86283630  0.90305534    -0.03600
C2805       C  0.71354591  0.86532286  0.91433366     0.00100
C2806       C  0.71895928  0.85213645  0.92464465    -0.02400
C2807       C  0.68637592  0.81950264  0.91551642     0.36800
C2808       C  0.72117843  0.88163323  0.91588960     0.40400
C2809       C  0.67650752  0.84558861  0.89312515     0.39600
C2810       C  0.73336501  0.85439972  0.93536570     0.36500
C2811       C  0.73185216  0.81057159  0.91206625     0.37200
C2812       C  0.71036296  0.80864286  0.98015066     0.40400
N2813       N  0.66505019  0.84377059  0.88452091    -0.37600
N2814       N  0.67874048  0.80724655  0.91631426    -0.39200
N2815       N  0.72708958  0.89467969  0.91768750    -0.37000
N2816       N  0.74487642  0.85622029  0.94389626    -0.39400
N2817       N  0.69019699  0.84473100  0.96355814    -0.39100
N2818       N  0.70534938  0.80798001  0.99370074    -0.36800
N2819       N  0.75250641  0.77493752  0.92794661    -0.37800
N2820       N  0.73612679  0.81036590  0.89826448    -0.39500
C2821       C  0.67036658  0.79037263  0.09268779    -0.04400
C2822       C  0.66907340  0.79371667  0.07545622     0.09700
C2823       C  0.65561557  0.80321560  0.06936463    -0.01800
C2824       C  0.64314534  0.80886058  0.08039955    -0.00100
C2825       C  0.64388638  0.80469143  0.09759147    -0.03700
C2826       C  0.65797572  0.79610495  0.10377214     0.03300
C2827       C  0.68204184  0.78732057  0.06370883     0.10200
C2828       C  0.65452480  0.80696735  0.05166651     0.36100
C2829       C  0.66049710  0.79426508  0.12158338     0.39500
C2830       C  0.68132574  0.77070492  0.05820690    -0.04000
C2831       C  0.69382922  0.76438482  0.04754561     0.03100
C2832       C  0.70692111  0.77497068  0.04158428    -0.03600
C2833       C  0.70725740  0.79188182  0.04706517     0.00100
C2834       C  0.69504556  0.79783564  0.05825871    -0.02400
C2835       C  0.66747599  0.76015677  0.06344560     0.36800
C2836       C  0.72011930  0.80342042  0.04147542     0.40400
C2837       C  0.69289492  0.74692294  0.04291180     0.39600
C2838       C  0.69585410  0.81487575  0.06430899     0.36500
C2839       C  0.68458219  0.78112538  0.09898690     0.37200
C2840       C  0.62941448  0.81870336  0.07391327     0.40400
N2841       N  0.69210880  0.73291407  0.03954574    -0.37600
N2842       N  0.65636438  0.75184723  0.06758938    -0.39200
N2843       N  0.73017911  0.81280736  0.03695664    -0.37000
N2844       N  0.69649421  0.82844147  0.06916557    -0.39400
N2845       N  0.65369665  0.80996036  0.03754926    -0.39100
N2846       N  0.61850315  0.82658905  0.06871830    -0.36800
N2847       N  0.66305520  0.79295327  0.13573735    -0.37800
N2848       N  0.69592204  0.77371592  0.10395605    -0.39500
C2849       C  0.76867993  0.68210069  0.05622227    -0.04400
C2850       C  0.78472158  0.68374057  0.06320971     0.09700
C2851       C  0.79483901  0.69748013  0.05888523    -0.01800
C2852       C  0.78880481  0.70988160  0.04796378    -0.00100
C2853       C  0.77268231  0.70832975  0.04070079    -0.03700
C2854       C  0.76274915  0.69414556  0.04480558     0.03300
C2855       C  0.79077751  0.67145199  0.07586143     0.10200
C2856       C  0.81147365  0.69891747  0.06594180     0.36100
C2857       C  0.74655423  0.69156171  0.03708830     0.39500
C2858       C  0.80100674  0.65804536  0.07099601    -0.04000
C2859       C  0.80756370  0.64711512  0.08314020     0.03100
C2860       C  0.80339021  0.64917202  0.10020045    -0.03600
C2861       C  0.79362898  0.66300452  0.10504687     0.00100
C2862       C  0.78720771  0.67398181  0.09289386    -0.02400
C2863       C  0.80471593  0.65551425  0.05345541     0.36800
C2864       C  0.79124915  0.66687318  0.12253346     0.40400
C2865       C  0.81853067  0.63369682  0.07800567     0.39600
C2866       C  0.77717210  0.68816471  0.09789145     0.36500
C2867       C  0.75824439  0.66800688  0.06092996     0.37200
C2868       C  0.79909478  0.72451493  0.04488443     0.40400
N2869       N  0.82731583  0.62302329  0.07391334    -0.37600
N2870       N  0.80761899  0.65348591  0.03944906    -0.39200
N2871       N  0.78937741  0.67063821  0.13634128    -0.37000
N2872       N  0.76918406  0.69950881  0.10179819    -0.39400
N2873       N  0.82474705  0.69994652  0.07155319    -0.39100
N2874       N  0.80734615  0.73616755  0.04251638    -0.36800
N2875       N  0.73363449  0.68946321  0.03095844    -0.37800
N2876       N  0.74992294  0.65679934  0.06476488    -0.39500
C2877       C  0.67451236  0.65347057  0.96769224    -0.04400
C2878       C  0.67407665  0.66965400  0.96077284     0.09700
C2879       C  0.66268169  0.67319159  0.94785812    -0.01800
C2880       C  0.65122121  0.66090462  0.94246785    -0.00100
C2881       C  0.65134966  0.64466466  0.94961988    -0.03700
C2882       C  0.66363851  0.64088548  0.96174560     0.03300
C2883       C  0.68587001  0.68294446  0.96683257     0.10200
C2884       C  0.66290514  0.68951190  0.93998745     0.36100
C2885       C  0.66618964  0.62386074  0.96719504     0.39500
C2886       C  0.70248384  0.68353531  0.96092951    -0.04000
C2887       C  0.71352538  0.69614858  0.96645300     0.03100
C2888       C  0.70801248  0.70842828  0.97785141    -0.03600
C2889       C  0.69131093  0.70784437  0.98369104     0.00100
C2890       C  0.68034663  0.69509247  0.97828573    -0.02400
C2891       C  0.70821280  0.67108000  0.94916351     0.36800
C2892       C  0.68513325  0.72074905  0.99471206     0.40400
C2893       C  0.73075308  0.69614128  0.96079275     0.39600
C2894       C  0.66332822  0.69438826  0.98451637     0.36500
C2895       C  0.68632011  0.64976682  0.98089452     0.37200
C2896       C  0.63911610  0.66522175  0.92971111     0.40400
N2897       N  0.74451432  0.69615796  0.95633954    -0.37600
N2898       N  0.71276525  0.66110546  0.93980166    -0.39200
N2899       N  0.68004563  0.73109466  0.00336429    -0.37000
N2900       N  0.64974490  0.69373148  0.98945069    -0.39400
N2901       N  0.66318311  0.70250150  0.93365865    -0.39100
N2902       N  0.62953409  0.66870277  0.91948329    -0.36800
N2903       N  0.66886112  0.61037054  0.97156934    -0.37800
N2904       N  0.69574233  0.64688148  0.99144711    -0.39500
C2905       C  0.64219576  0.49849679  0.12156510    -0.04400
C2906       C  0.62837318  0.50803366  0.12665514     0.09700
C2907       C  0.61365203  0.50002140  0.13209187    -0.01800
C2908       C  0.61278998  0.48248295  0.13259115    -0.00100
C2909       C  0.62674083  0.47283447  0.12784148    -0.03700
C2910       C  0.64146480  0.48095591  0.12233137     0.03300
C2911       C  0.62928778  0.52661250  0.12635305     0.10200
C2912       C  0.59941313  0.50990682  0.13725776     0.36100
C2913       C  0.65572300  0.47137399  0.11683189     0.39500
C2914       C  0.62304398  0.53548076  0.11255770    -0.04000
C2915       C  0.62313451  0.55305883  0.11256073     0.03100
C2916       C  0.62949974  0.56200424  0.12652075    -0.03600
C2917       C  0.63667494  0.55286136  0.13994756     0.00100
C2918       C  0.63628381  0.53526778  0.13992305    -0.02400
C2919       C  0.61660805  0.52640079  0.09827345     0.36800
C2920       C  0.64457179  0.56128174  0.15387767     0.40400
C2921       C  0.61721406  0.56174725  0.09778970     0.39600
C2922       C  0.64285574  0.52595467  0.15401898     0.36500
C2923       C  0.65705000  0.50679894  0.11523425     0.37200
C2924       C  0.59768144  0.47450104  0.13856992     0.40400
N2925       N  0.61249429  0.56860503  0.08597675    -0.37600
N2926       N  0.61157049  0.51911644  0.08687942    -0.39200
N2927       N  0.65119386  0.56779205  0.16493147    -0.37000
N2928       N  0.64800774  0.51847761  0.16525435    -0.39400
N2929       N  0.58807254  0.51782237  0.14135820    -0.39100
N2930       N  0.58547183  0.46857739  0.14361257    -0.36800
N2931       N  0.66727999  0.46416662  0.11207784    -0.37800
N2932       N  0.66884457  0.51343866  0.11008616    -0.39500
C2933       C  0.53546277  0.62582311  0.11257828    -0.04400
C2934       C  0.52672358  0.62416403  0.12779914     0.09700
C2935       C  0.53560814  0.62385907  0.14300850    -0.01800
C2936       C  0.55320525  0.62491845  0.14296123    -0.00100
C2937       C  0.56194493  0.62669053  0.12770028    -0.03700
C2938       C  0.55293624  0.62776677  0.11259554     0.03300
C2939       C  0.50806431  0.62396835  0.12779704     0.10200
C2940       C  0.52659307  0.62252316  0.15868591     0.36100
C2941       C  0.56144444  0.63245525  0.09729412     0.39500
C2942       C  0.49920489  0.60902626  0.13073229    -0.04000
C2943       C  0.48159151  0.60897959  0.13059199     0.03100
C2944       C  0.47271544  0.62383607  0.12721478    -0.03600
C2945       C  0.48169380  0.63873485  0.12409604     0.00100
C2946       C  0.49926660  0.63882544  0.12455768    -0.02400
C2947       C  0.50825750  0.59369367  0.13387169     0.36800
C2948       C  0.47299658  0.65389820  0.11963252     0.40400
C2949       C  0.47270731  0.59373476  0.13461910     0.39600
C2950       C  0.50838525  0.65422235  0.12152582     0.36500
C2951       C  0.52640918  0.62557430  0.09689137     0.37200
C2952       C  0.56228279  0.62412596  0.15860629     0.40400
N2953       N  0.46598778  0.58141356  0.13812733    -0.37600
N2954       N  0.51548194  0.58147431  0.13641649    -0.39200
N2955       N  0.46649405  0.66617489  0.11575907    -0.37000
N2956       N  0.51571881  0.66643800  0.11901806    -0.39400
N2957       N  0.51934562  0.62141136  0.17115636    -0.39100
N2958       N  0.56953740  0.62357348  0.17108315    -0.36800
N2959       N  0.56808648  0.63680200  0.08519887    -0.37800
N2960       N  0.51913609  0.62527993  0.08441861    -0.39500
C2961       C  0.71820070  0.61381846  0.12941994    -0.04400
C2962       C  0.72697073  0.62776467  0.12327643     0.09700
C2963       C  0.71823019  0.64154540  0.11686312    -0.01800
C2964       C  0.70063056  0.64136470  0.11638845    -0.00100
C2965       C  0.69157216  0.62760974  0.12312481    -0.03700
C2966       C  0.70060799  0.61365345  0.12933507     0.03300
C2967       C  0.74555777  0.62764252  0.12296265     0.10200
C2968       C  0.72746741  0.65601466  0.11090927     0.36100
C2969       C  0.69201312  0.59866507  0.13492905     0.39500
C2970       C  0.75402751  0.62306798  0.10825863    -0.04000
C2971       C  0.77159366  0.62268934  0.10796870     0.03100
C2972       C  0.78079278  0.62703556  0.12237049    -0.03600
C2973       C  0.77220230  0.63168951  0.13706883     0.00100
C2974       C  0.75463256  0.63189256  0.13737715    -0.02400
C2975       C  0.74458069  0.61854454  0.09348827     0.36800
C2976       C  0.78132211  0.63705567  0.15169924     0.40400
C2977       C  0.78005914  0.61717303  0.09299825     0.39600
C2978       C  0.74582715  0.63657401  0.15249619     0.36500
C2979       C  0.72740462  0.59956578  0.13575816     0.37200
C2980       C  0.69212406  0.65530221  0.10861808     0.40400
N2981       N  0.78639500  0.61247441  0.08090556    -0.37600
N2982       N  0.73700586  0.61495942  0.08173171    -0.39200
N2983       N  0.78817175  0.64173816  0.16351011    -0.37000
N2984       N  0.73880089  0.64026482  0.16456447    -0.39400
N2985       N  0.73489714  0.66754438  0.10628199    -0.39100
N2986       N  0.68555112  0.66632246  0.10201341    -0.36800
N2987       N  0.68524154  0.58666613  0.13936779    -0.37800
N2988       N  0.73481918  0.58826823  0.14081387    -0.39500
C2989       C  0.62722009  0.64148783  0.21780860    -0.04400
C2990       C  0.62657811  0.62601439  0.22621401     0.09700
C2991       C  0.62628766  0.61108686  0.21695782    -0.01800
C2992       C  0.62619972  0.61160999  0.19936415    -0.00100
C2993       C  0.62705360  0.62708335  0.19084503    -0.03700
C2994       C  0.62754835  0.64204806  0.20018884     0.03300
C2995       C  0.62561221  0.62542370  0.24486571     0.10200
C2996       C  0.62603247  0.59516004  0.22560843     0.36100
C2997       C  0.62866128  0.65804667  0.19174788     0.39500
C2998       C  0.61020077  0.62223996  0.25279550    -0.04000
C2999       C  0.60929018  0.62123785  0.27034464     0.03100
C3000       C  0.62364569  0.62421471  0.28020758    -0.03600
C3001       C  0.63904882  0.62762429  0.27216349     0.00100
C3002       C  0.64007070  0.62786357  0.25457511    -0.02400
C3003       C  0.59526814  0.61986295  0.24281243     0.36800
C3004       C  0.65382445  0.63143658  0.28183009     0.40400
C3005       C  0.59375182  0.61604755  0.27805887     0.39600
C3006       C  0.65604396  0.63050213  0.24639173     0.36500
C3007       C  0.62749578  0.65683083  0.22737062     0.37200
C3008       C  0.62414649  0.59622888  0.19009515     0.40400
N3009       N  0.58122957  0.61148345  0.28370492    -0.37600
N3010       N  0.58338475  0.61797777  0.23481918    -0.39200
N3011       N  0.66582329  0.63473104  0.28916933    -0.37000
N3012       N  0.66877670  0.63255116  0.23982797    -0.39400
N3013       N  0.62586766  0.58247921  0.23254164    -0.39100
N3014       N  0.62222935  0.58397068  0.18274838    -0.36800
N3015       N  0.62951978  0.67082542  0.18504096    -0.37800
N3016       N  0.62776453  0.66901386  0.23508200    -0.39500
C3017       C  0.64037799  0.71873084  0.12281927    -0.04400
C3018       C  0.62484943  0.72695276  0.12209337     0.09700
C3019       C  0.60993288  0.71753757  0.12193055    -0.01800
C3020       C  0.61054163  0.69996464  0.12217663    -0.00100
C3021       C  0.62607562  0.69167382  0.12330933    -0.03700
C3022       C  0.64098736  0.70116896  0.12384034     0.03300
C3023       C  0.62417655  0.74557828  0.12115064     0.10200
C3024       C  0.59394667  0.72599641  0.12146892     0.36100
C3025       C  0.65690667  0.69299461  0.12633758     0.39500
C3026       C  0.62128128  0.75349561  0.10571311    -0.04000
C3027       C  0.61997664  0.77100339  0.10483152     0.03100
C3028       C  0.62211903  0.78084275  0.11933522    -0.03600
C3029       C  0.62549103  0.77282444  0.13473059     0.00100
C3030       C  0.62623369  0.75526625  0.13566439    -0.02400
C3031       C  0.61949161  0.74351206  0.09073088     0.36800
C3032       C  0.62884168  0.78254986  0.14956161     0.40400
C3033       C  0.61544349  0.77867071  0.08910348     0.39600
C3034       C  0.62904036  0.74709682  0.15159269     0.36500
C3035       C  0.65572126  0.72840615  0.12233459     0.37200
C3036       C  0.59518544  0.69041894  0.12064150     0.40400
N3037       N  0.61157039  0.78433024  0.07638833    -0.37600
N3038       N  0.61808222  0.73547855  0.07883140    -0.39200
N3039       N  0.63179676  0.79000839  0.16155420    -0.37000
N3040       N  0.63126661  0.74055094  0.16428643    -0.39400
N3041       N  0.58122008  0.73278939  0.12112988    -0.39100
N3042       N  0.58298232  0.68276057  0.11930221    -0.36800
N3043       N  0.66963955  0.68662108  0.12864600    -0.37800
N3044       N  0.66791008  0.73619516  0.12183996    -0.39500
C3045       C  0.64027138  0.62454786  0.03455686    -0.04400
C3046       C  0.62522463  0.62222812  0.02578716     0.09700
C3047       C  0.61033097  0.61889470  0.03456122    -0.01800
C3048       C  0.61035618  0.61841510  0.05217209    -0.00100
C3049       C  0.62520179  0.62209166  0.06113055    -0.03700
C3050       C  0.64031033  0.62446079  0.05214133     0.03300
C3051       C  0.62532744  0.62245366  0.00718042     0.10200
C3052       C  0.59500006  0.61588359  0.02537276     0.36100
C3053       C  0.65612596  0.62574864  0.06089640     0.39500
C3054       C  0.62845548  0.60763836  0.99835880    -0.04000
C3055       C  0.62969374  0.60794694  0.98084157     0.03100
C3056       C  0.62720379  0.62300597  0.97194324    -0.03600
C3057       C  0.62387232  0.63783084  0.98087322     0.00100
C3058       C  0.62310067  0.63755915  0.99845556    -0.02400
C3059       C  0.63071949  0.59211451  0.00741924     0.36800
C3060       C  0.62077410  0.65330460  0.97205419     0.40400
C3061       C  0.63473600  0.59295526  0.97217045     0.39600
C3062       C  0.62006038  0.65281752  0.00764474     0.36500
C3063       C  0.65577275  0.62675957  0.02537547     0.37200
C3064       C  0.59517946  0.61358623  0.06082867     0.40400
N3065       N  0.63911040  0.58087797  0.96563756    -0.37600
N3066       N  0.63249273  0.57976082  0.01469418    -0.39200
N3067       N  0.61817607  0.66578244  0.96525990    -0.37000
N3068       N  0.61766972  0.66497796  0.01500746    -0.39400
N3069       N  0.58280620  0.61351450  0.01799355    -0.39100
N3070       N  0.58309916  0.60917974  0.06747465    -0.36800
N3071       N  0.66875590  0.62661526  0.06785904    -0.37800
N3072       N  0.66808792  0.62841840  0.01796199    -0.39500
C3073       C  0.34527977  0.82635862  0.53617898    -0.04400
C3074       C  0.32802038  0.82669390  0.53973593     0.09700
C3075       C  0.32154071  0.83939751  0.54998175    -0.01800
C3076       C  0.33208530  0.85211400  0.55605195    -0.00100
C3077       C  0.34926531  0.85234990  0.55178573    -0.03700
C3078       C  0.35591407  0.83902025  0.54235484     0.03300
C3079       C  0.31645654  0.81383654  0.53257333     0.10200
C3080       C  0.30390858  0.83938119  0.55420178     0.36100
C3081       C  0.37377696  0.83765515  0.53982915     0.39500
C3082       C  0.31470286  0.79809431  0.54027624    -0.04000
C3083       C  0.30317087  0.78632078  0.53396675     0.03100
C3084       C  0.29279670  0.79045092  0.52022187    -0.03600
C3085       C  0.29441439  0.80643149  0.51276125     0.00100
C3086       C  0.30645417  0.81786995  0.51867110    -0.02400
C3087       C  0.32453481  0.79419179  0.55496696     0.36800
C3088       C  0.28303606  0.81159523  0.49965710     0.40400
C3089       C  0.30225584  0.76987778  0.54153378     0.39600
C3090       C  0.30840978  0.83399897  0.51062813     0.36500
C3091       C  0.35207803  0.81291344  0.52620656     0.37200
C3092       C  0.32505264  0.86520552  0.56634687     0.40400
N3093       N  0.30155872  0.75676792  0.54758492    -0.37600
N3094       N  0.33232767  0.79115565  0.56674013    -0.39200
N3095       N  0.27385599  0.81578529  0.48932722    -0.37000
N3096       N  0.31003872  0.84687048  0.50425318    -0.39400
N3097       N  0.28983716  0.83931306  0.55752800    -0.39100
N3098       N  0.31942528  0.87566509  0.57451892    -0.36800
N3099       N  0.38800560  0.83607848  0.53786711    -0.37800
N3100       N  0.35751345  0.80214681  0.51830932    -0.39500
C3101       C  0.22717157  0.80590568  0.42889477    -0.04400
C3102       C  0.21363363  0.81606665  0.43357937     0.09700
C3103       C  0.20566637  0.81343948  0.44907961    -0.01800
C3104       C  0.21146964  0.80096472  0.46008282    -0.00100
C3105       C  0.22550646  0.79114860  0.45573701    -0.03700
C3106       C  0.23317571  0.79356133  0.43993932     0.03300
C3107       C  0.20802388  0.82987016  0.42231583     0.10200
C3108       C  0.19156589  0.82375339  0.45374593     0.36100
C3109       C  0.24697597  0.78307050  0.43478099     0.39500
C3110       C  0.19595184  0.82684022  0.40991149    -0.04000
C3111       C  0.19092779  0.83980915  0.39911120     0.03100
C3112       C  0.19788557  0.85602590  0.40071825    -0.03600
C3113       C  0.20932581  0.85917118  0.41379304     0.00100
C3114       C  0.21470810  0.84603561  0.42422103    -0.02400
C3115       C  0.18880230  0.81028630  0.40821474     0.36800
C3116       C  0.21471106  0.87601875  0.41746446     0.40400
C3117       C  0.17885405  0.83625967  0.38608508     0.39600
C3118       C  0.22716356  0.84910750  0.43699968     0.36500
C3119       C  0.23486140  0.80819416  0.41262461     0.37200
C3120       C  0.20324367  0.79865638  0.47608972     0.40400
N3121       N  0.16921778  0.83342457  0.37570787    -0.37600
N3122       N  0.18309322  0.79707991  0.40688411    -0.39200
N3123       N  0.21904301  0.88931553  0.42103798    -0.37000
N3124       N  0.23714965  0.85147857  0.44715818    -0.39400
N3125       N  0.18032931  0.83200659  0.45744524    -0.39100
N3126       N  0.19663434  0.79676329  0.48882260    -0.36800
N3127       N  0.25798601  0.77471707  0.43064282    -0.37800
N3128       N  0.24086506  0.81004262  0.39959248    -0.39500
C3129       C  0.17987685  0.79230119  0.59510730    -0.04400
C3130       C  0.17284694  0.78605395  0.58019556     0.09700
C3131       C  0.15533338  0.78638313  0.57808773    -0.01800
C3132       C  0.14492213  0.79227399  0.59102700    -0.00100
C3133       C  0.15195776  0.79828368  0.60602302    -0.03700
C3134       C  0.16952264  0.79910336  0.60759496     0.03300
C3135       C  0.18395547  0.77986375  0.56642616     0.10200
C3136       C  0.14805381  0.78107619  0.56238580     0.36100
C3137       C  0.17700997  0.80725641  0.62191284     0.39500
C3138       C  0.18407250  0.76276956  0.56209612    -0.04000
C3139       C  0.19460618  0.75703822  0.54918419     0.03100
C3140       C  0.20564984  0.76819218  0.54110124    -0.03600
C3141       C  0.20562580  0.78522202  0.54545114     0.00100
C3142       C  0.19449630  0.79112286  0.55773247    -0.02400
C3143       C  0.17357149  0.75103443  0.57113461     0.36800
C3144       C  0.21707946  0.79668157  0.53724272     0.40400
C3145       C  0.19431042  0.73960713  0.54439116     0.39600
C3146       C  0.19381723  0.80882491  0.56136307     0.36500
C3147       C  0.19780481  0.79165643  0.59764845     0.37200
C3148       C  0.12709008  0.79341162  0.58824580     0.40400
N3149       N  0.19401885  0.72572744  0.54047259    -0.37600
N3150       N  0.16514903  0.74170960  0.57833876    -0.39200
N3151       N  0.22628729  0.80577282  0.53073566    -0.37000
N3152       N  0.19327228  0.82293729  0.56429274    -0.39400
N3153       N  0.14227622  0.77681983  0.54985899    -0.39100
N3154       N  0.11294899  0.79448493  0.58551789    -0.36800
N3155       N  0.18297959  0.81383329  0.63329297    -0.37800
N3156       N  0.21210519  0.79114339  0.59966316    -0.39500
C3157       C  0.30114040  0.70783633  0.43267893    -0.04400
C3158       C  0.31611600  0.71672111  0.43000425     0.09700
C3159       C  0.31923714  0.73154413  0.43889338    -0.01800
C3160       C  0.30755641  0.73729766  0.45076368    -0.00100
C3161       C  0.29248907  0.72835513  0.45358562    -0.03700
C3162       C  0.28924364  0.71373254  0.44419665     0.03300
C3163       C  0.32836201  0.71056596  0.41738280     0.10200
C3164       C  0.33450564  0.74084874  0.43576588     0.36100
C3165       C  0.27336291  0.70506623  0.44576100     0.39500
C3166       C  0.32698066  0.71569029  0.40061290    -0.04000
C3167       C  0.33759695  0.70888765  0.38837220     0.03100
C3168       C  0.35053921  0.69787363  0.39301797    -0.03600
C3169       C  0.35154348  0.69233848  0.40981069     0.00100
C3170       C  0.34045461  0.69866672  0.42192172    -0.02400
C3171       C  0.31445809  0.72787991  0.39596998     0.36800
C3172       C  0.36408255  0.68028218  0.41476740     0.40400
C3173       C  0.33408002  0.71205745  0.37092617     0.39600
C3174       C  0.34145080  0.69297489  0.43910009     0.36500
C3175       C  0.29798156  0.69260843  0.42343061     0.37200
C3176       C  0.31133445  0.75218692  0.46031857     0.40400
N3177       N  0.33061031  0.71445719  0.35711287    -0.37600
N3178       N  0.30451993  0.73768702  0.39235547    -0.39200
N3179       N  0.37402403  0.67061560  0.41874777    -0.37000
N3180       N  0.34219547  0.68842585  0.45280314    -0.39400
N3181       N  0.34666479  0.74827794  0.43320114    -0.39100
N3182       N  0.31433705  0.76407707  0.46792319    -0.36800
N3183       N  0.26067945  0.69818156  0.44690268    -0.37800
N3184       N  0.29557291  0.68044939  0.41605281    -0.39500
C3185       C  0.18128088  0.65104262  0.44597169    -0.04400
C3186       C  0.17533798  0.66521547  0.45446884     0.09700
C3187       C  0.15800926  0.66734525  0.45679588    -0.01800
C3188       C  0.14674597  0.65491663  0.45146907    -0.00100
C3189       C  0.15279103  0.63998279  0.44443407    -0.03700
C3190       C  0.17002946  0.63850737  0.44083039     0.03300
C3191       C  0.18730548  0.67792288  0.46107132     0.10200
C3192       C  0.15178711  0.68238619  0.46464286     0.36100
C3193       C  0.17625269  0.62404491  0.43196442     0.39500
C3194       C  0.18990633  0.69304905  0.45240327    -0.04000
C3195       C  0.20043485  0.70542784  0.45917113     0.03100
C3196       C  0.20863656  0.70261680  0.47452815    -0.03600
C3197       C  0.20638352  0.68726245  0.48296842     0.00100
C3198       C  0.19574315  0.67495212  0.47624198    -0.02400
C3199       C  0.18199915  0.69567714  0.43633582     0.36800
C3200       C  0.21463993  0.68429840  0.49881437     0.40400
C3201       C  0.20326157  0.72084623  0.45005575     0.39600
C3202       C  0.19347951  0.65916339  0.48486760     0.36500
C3203       C  0.19899560  0.64939902  0.44256678     0.37200
C3204       C  0.12896711  0.65816857  0.45195617     0.40400
N3205       N  0.20556844  0.73314525  0.44280295    -0.37600
N3206       N  0.17574760  0.69769680  0.42347432    -0.39200
N3207       N  0.22120813  0.68194567  0.51146291    -0.37000
N3208       N  0.19172584  0.64649448  0.49161308    -0.39400
N3209       N  0.14684823  0.69442622  0.47083859    -0.39100
N3210       N  0.11486931  0.66129041  0.45200062    -0.36800
N3211       N  0.18121100  0.61250728  0.42488630    -0.37800
N3212       N  0.21313394  0.64813426  0.43984175    -0.39500
C3213       C  0.26377343  0.68885862  0.56737180    -0.04400
C3214       C  0.27890316  0.68015359  0.56536902     0.09700
C3215       C  0.28890165  0.68300461  0.55112199    -0.01800
C3216       C  0.28388076  0.69469438  0.53896555    -0.00100
C3217       C  0.26892545  0.70376390  0.54114845    -0.03700
C3218       C  0.25880828  0.70068790  0.55532912     0.03300
C3219       C  0.28485071  0.66870393  0.57879776     0.10200
C3220       C  0.30458396  0.67418634  0.54924420     0.36100
C3221       C  0.24312110  0.70946062  0.55739099     0.39500
C3222       C  0.28081196  0.65159554  0.57838450    -0.04000
C3223       C  0.28691271  0.64079628  0.59087487     0.03100
C3224       C  0.29644864  0.64720831  0.60425627    -0.03600
C3225       C  0.30099726  0.66427079  0.60424762     0.00100
C3226       C  0.29507448  0.67498901  0.59164121    -0.02400
C3227       C  0.27055465  0.64510475  0.56495909     0.36800
C3228       C  0.31190235  0.67084936  0.61710957     0.40400
C3229       C  0.28471706  0.62296692  0.58897003     0.39600
C3230       C  0.29951590  0.69254545  0.59179376     0.36500
C3231       C  0.25346092  0.68574618  0.58197404     0.37200
C3232       C  0.29445376  0.69784320  0.52455601     0.40400
N3233       N  0.28320161  0.60877891  0.58683898    -0.37600
N3234       N  0.26233544  0.63992330  0.55427788    -0.39200
N3235       N  0.32062084  0.67612334  0.62734183    -0.37000
N3236       N  0.30301256  0.70655934  0.59183225    -0.39400
N3237       N  0.31711964  0.66718089  0.54783440    -0.39100
N3238       N  0.30289230  0.70035515  0.51306761    -0.36800
N3239       N  0.23061662  0.71647274  0.55902797    -0.37800
N3240       N  0.24528961  0.68321872  0.59364924    -0.39500
C3241       C  0.83996453  0.42599316  0.19775688    -0.04400
C3242       C  0.82663278  0.42227130  0.20866555     0.09700
C3243       C  0.82340688  0.40555514  0.21318180    -0.01800
C3244       C  0.83381563  0.39266888  0.20727863    -0.00100
C3245       C  0.84797153  0.39648417  0.19739022    -0.03700
C3246       C  0.85053540  0.41317005  0.19202714     0.03300
C3247       C  0.81568028  0.43595450  0.21505868     0.10200
C3248       C  0.80930967  0.40164322  0.22391132     0.36100
C3249       C  0.86432230  0.41733161  0.18097433     0.39500
C3250       C  0.80088427  0.44008975  0.20650000    -0.04000
C3251       C  0.79030337  0.45265884  0.21272355     0.03100
C3252       C  0.79454785  0.46135790  0.22747935    -0.03600
C3253       C  0.80957131  0.45744277  0.23585510     0.00100
C3254       C  0.82007135  0.44472586  0.22967587    -0.02400
C3255       C  0.79659779  0.43138637  0.19123435     0.36800
C3256       C  0.81389226  0.46599077  0.25119361     0.40400
C3257       C  0.77512591  0.45681788  0.20376423     0.39600
C3258       C  0.83532527  0.44045972  0.23842510     0.36500
C3259       C  0.84286573  0.44310831  0.19257435     0.37200
C3260       C  0.82919261  0.37546896  0.21044390     0.40400
N3261       N  0.76300310  0.46014914  0.19666250    -0.37600
N3262       N  0.79323055  0.42445019  0.17903678    -0.39200
N3263       N  0.81733903  0.47277108  0.26345945    -0.37000
N3264       N  0.84751758  0.43698407  0.24533163    -0.39400
N3265       N  0.79806441  0.39853580  0.23248063    -0.39100
N3266       N  0.82501003  0.36184654  0.21284901    -0.36800
N3267       N  0.87527098  0.42067953  0.17211154    -0.37800
N3268       N  0.84514464  0.45677389  0.18846014    -0.39500
C3269       C  0.82024948  0.54314519  0.29988410    -0.04400
C3270       C  0.82137148  0.53554380  0.31573871     0.09700
C3271       C  0.80948244  0.52343354  0.32052813    -0.01800
C3272       C  0.79686913  0.51844574  0.30930798    -0.00100
C3273       C  0.79596343  0.52567172  0.29315349    -0.03700
C3274       C  0.80753016  0.53834918  0.28867041     0.03300
C3275       C  0.83498897  0.54035847  0.32759243     0.10200
C3276       C  0.81033750  0.51604831  0.33706882     0.36100
C3277       C  0.80600143  0.54697233  0.27278740     0.39500
C3278       C  0.83173200  0.55178440  0.34049834    -0.04000
C3279       C  0.84424440  0.55568081  0.35223492     0.03100
C3280       C  0.86028137  0.54827025  0.35109918    -0.03600
C3281       C  0.86366323  0.53727109  0.33772658     0.00100
C3282       C  0.85097686  0.53316765  0.32617722    -0.02400
C3283       C  0.81543405  0.55957167  0.34162936     0.36800
C3284       C  0.88035104  0.53090421  0.33505576     0.40400
C3285       C  0.84039293  0.56711983  0.36570920     0.39600
C3286       C  0.85436419  0.52163044  0.31267075     0.36500
C3287       C  0.83213819  0.55602723  0.29519259     0.37200
C3288       C  0.78516113  0.50551479  0.31435227     0.40400
N3289       N  0.83729311  0.57621921  0.37646061    -0.37600
N3290       N  0.80243302  0.56578072  0.34247007    -0.39200
N3291       N  0.89354059  0.52571984  0.33232291    -0.37000
N3292       N  0.85701366  0.51247042  0.30185085    -0.39400
N3293       N  0.81103914  0.51027753  0.35030759    -0.39100
N3294       N  0.77579593  0.49524584  0.31841841    -0.36800
N3295       N  0.80471965  0.55390146  0.26015878    -0.37800
N3296       N  0.84162364  0.56630033  0.29143891    -0.39500
C3297       C  0.79215267  0.55491520  0.18376195    -0.04400
C3298       C  0.78286656  0.56929432  0.17993032     0.09700
C3299       C  0.76740585  0.57200410  0.18783185    -0.01800
C3300       C  0.76144978  0.56063654  0.19999295    -0.00100
C3301       C  0.77119333  0.54655858  0.20467901    -0.03700
C3302       C  0.78641447  0.54359449  0.19602499     0.03300
C3303       C  0.78945246  0.58152911  0.16739913     0.10200
C3304       C  0.75761376  0.58654519  0.18333569     0.36100
C3305       C  0.79593964  0.52851488  0.19903620     0.39500
C3306       C  0.78594365  0.57942039  0.15029876    -0.04000
C3307       C  0.79298979  0.59035713  0.13838113     0.03100
C3308       C  0.80298875  0.60394624  0.14355720    -0.03600
C3309       C  0.80703825  0.60561523  0.16066291     0.00100
C3310       C  0.80007374  0.59459089  0.17255291    -0.02400
C3311       C  0.77514416  0.56587830  0.14499857     0.36800
C3312       C  0.81829038  0.61873348  0.16610156     0.40400
C3313       C  0.79111849  0.58665637  0.12079594     0.39600
C3314       C  0.80368150  0.59674248  0.19015761     0.36500
C3315       C  0.80759103  0.55169524  0.17482229     0.37200
C3316       C  0.74518665  0.56356642  0.20739280     0.40400
N3317       N  0.78979899  0.58308781  0.10687333    -0.37600
N3318       N  0.76646864  0.55510692  0.14081097    -0.39200
N3319       N  0.82726167  0.62920073  0.17044228    -0.37000
N3320       N  0.80647589  0.59847248  0.20421953    -0.39400
N3321       N  0.74983854  0.59814132  0.17970763    -0.39100
N3322       N  0.73203666  0.56589872  0.21291109    -0.36800
N3323       N  0.80355198  0.51648433  0.20135020    -0.37800
N3324       N  0.81983584  0.54915323  0.16757962    -0.39500
C3325       C  0.70518124  0.45004910  0.30869460    -0.04400
C3326       C  0.71563616  0.43829536  0.31658719     0.09700
C3327       C  0.73271683  0.43749306  0.31222319    -0.01800
C3328       C  0.73938542  0.44868390  0.30030980    -0.00100
C3329       C  0.72897417  0.46061941  0.29266049    -0.03700
C3330       C  0.71178024  0.46098100  0.29653940     0.03300
C3331       C  0.70862731  0.42675575  0.32953607     0.10200
C3332       C  0.74339160  0.42516738  0.32005537     0.36100
C3333       C  0.70077584  0.47220630  0.28759333     0.39500
C3334       C  0.69872245  0.41300177  0.32475233    -0.04000
C3335       C  0.69197728  0.40224922  0.33698361     0.03100
C3336       C  0.69598423  0.40457032  0.35401837    -0.03600
C3337       C  0.70529035  0.41874634  0.35883767     0.00100
C3338       C  0.71152194  0.42984915  0.34662171    -0.02400
C3339       C  0.69569358  0.40978404  0.30719970     0.36800
C3340       C  0.70754734  0.42258830  0.37635250     0.40400
C3341       C  0.68115379  0.38860044  0.33196254     0.39600
C3342       C  0.72064870  0.44468029  0.35159759     0.36500
C3343       C  0.68767152  0.45100707  0.31327510     0.37200
C3344       C  0.75695151  0.44797168  0.29592124     0.40400
N3345       N  0.67251315  0.37771715  0.32798965    -0.37600
N3346       N  0.69330449  0.40720377  0.29319496    -0.39200
N3347       N  0.70926941  0.42611845  0.39024153    -0.37000
N3348       N  0.72787049  0.45656285  0.35551738    -0.39400
N3349       N  0.75186079  0.41532878  0.32635752    -0.39100
N3350       N  0.77095150  0.44740897  0.29235009    -0.36800
N3351       N  0.69192020  0.48095160  0.28028761    -0.37800
N3352       N  0.67371941  0.45173159  0.31699676    -0.39500
C3353       C  0.69132928  0.48547028  0.18313709    -0.04400
C3354       C  0.68377114  0.46986961  0.18617899     0.09700
C3355       C  0.68805916  0.46063297  0.20051030    -0.01800
C3356       C  0.69974587  0.46705176  0.21195689    -0.00100
C3357       C  0.70753744  0.48270242  0.20894383    -0.03700
C3358       C  0.70324747  0.49186669  0.19439747     0.03300
C3359       C  0.67114102  0.46314692  0.17427998     0.10200
C3360       C  0.68042273  0.44444314  0.20343059     0.36100
C3361       C  0.71141904  0.50761798  0.19060588     0.39500
C3362       C  0.67619443  0.45280557  0.16102415    -0.04000
C3363       C  0.66423178  0.44631398  0.14988670     0.03100
C3364       C  0.64718970  0.45058941  0.15165376    -0.03600
C3365       C  0.64209933  0.46024492  0.16548277     0.00100
C3366       C  0.65408313  0.46671623  0.17661109    -0.02400
C3367       C  0.69375607  0.44897333  0.15883466     0.36800
C3368       C  0.62453162  0.46240842  0.16917705     0.40400
C3369       C  0.66951584  0.43523810  0.13661443     0.39600
C3370       C  0.64890582  0.47694613  0.19060345     0.36500
C3371       C  0.68693376  0.49480961  0.16824070     0.37200
C3372       C  0.70328768  0.45765876  0.22706881     0.40400
N3373       N  0.67375029  0.42640434  0.12602917    -0.37600
N3374       N  0.70778736  0.44599363  0.15712315    -0.39200
N3375       N  0.61063174  0.46400469  0.17278396    -0.37000
N3376       N  0.64484156  0.48511765  0.20177419    -0.39400
N3377       N  0.67439076  0.43150358  0.20573618    -0.39100
N3378       N  0.70613456  0.45017779  0.23910787    -0.36800
N3379       N  0.71790753  0.52018413  0.18754486    -0.37800
N3380       N  0.68341710  0.50217747  0.15631688    -0.39500
C3381       C  0.65320888  0.57776301  0.28593499    -0.04400
C3382       C  0.66950791  0.57944664  0.29237955     0.09700
C3383       C  0.67278694  0.59133788  0.30488011    -0.01800
C3384       C  0.65995321  0.60191151  0.31052502    -0.00100
C3385       C  0.64367601  0.60060021  0.30370799    -0.03700
C3386       C  0.64021626  0.58793644  0.29197680     0.03300
C3387       C  0.68314923  0.56824585  0.28644085     0.10200
C3388       C  0.68946887  0.59276748  0.31179640     0.36100
C3389       C  0.62316570  0.58449083  0.28699972     0.39500
C3390       C  0.69468896  0.57390065  0.27436292    -0.04000
C3391       C  0.70753961  0.56327748  0.26876703     0.03100
C3392       C  0.70871545  0.54677843  0.27495512    -0.03600
C3393       C  0.69752293  0.54143144  0.28762824     0.00100
C3394       C  0.68478351  0.55213221  0.29329247    -0.02400
C3395       C  0.69337906  0.59074170  0.26783767     0.36800
C3396       C  0.69897631  0.52492370  0.29490803     0.40400
C3397       C  0.72020895  0.56973743  0.25751710     0.39600
C3398       C  0.67334883  0.54663882  0.30628598     0.36500
C3399       C  0.64986378  0.56561839  0.27296763     0.37200
C3400       C  0.66371998  0.61446971  0.32299755     0.40400
N3401       N  0.73048435  0.57507546  0.24883034    -0.37600
N3402       N  0.69231032  0.60420560  0.26272038    -0.39200
N3403       N  0.70017366  0.51187848  0.30098693    -0.37000
N3404       N  0.66422024  0.54232416  0.31666325    -0.39400
N3405       N  0.70279620  0.59388780  0.31726210    -0.39100
N3406       N  0.66676079  0.62448355  0.33292929    -0.36800
N3407       N  0.60961912  0.58124360  0.28314997    -0.37800
N3408       N  0.64721707  0.55600499  0.26254358    -0.39500
C3409       C  0.19381582  0.19775946  0.95729274    -0.04400
C3410       C  0.18923855  0.18430914  0.96777027     0.09700
C3411       C  0.19492076  0.18387192  0.98442014    -0.01800
C3412       C  0.20543824  0.19665285  0.99047061    -0.00100
C3413       C  0.21035413  0.20994041  0.97987746    -0.03700
C3414       C  0.20428267  0.21058611  0.96333958     0.03300
C3415       C  0.17861089  0.17045491  0.96110746     0.10200
C3416       C  0.18999878  0.17017749  0.99525242     0.36100
C3417       C  0.20924470  0.22414885  0.95236422     0.39500
C3418       C  0.18611444  0.15672312  0.95314263    -0.04000
C3419       C  0.17611934  0.14401198  0.94615626     0.03100
C3420       C  0.15849809  0.14468749  0.94753347    -0.03600
C3421       C  0.15103076  0.15876886  0.95503430     0.00100
C3422       C  0.16106315  0.17143645  0.96206572    -0.02400
C3423       C  0.20417893  0.15568806  0.95222797     0.36800
C3424       C  0.13311681  0.16107219  0.95425846     0.40400
C3425       C  0.18404497  0.13024551  0.93754203     0.39600
C3426       C  0.15336012  0.18562875  0.97017015     0.36500
C3427       C  0.18794278  0.19819558  0.94017703     0.37200
C3428       C  0.21084513  0.19637608  0.00775025     0.40400
N3429       N  0.19038272  0.11925792  0.93069126    -0.37600
N3430       N  0.21859514  0.15488054  0.95158031    -0.39200
N3431       N  0.11890258  0.16348776  0.95345161    -0.37000
N3432       N  0.14725145  0.19693800  0.97669276    -0.39400
N3433       N  0.18604388  0.15922624  0.00384860    -0.39100
N3434       N  0.21507394  0.19624070  0.02156098    -0.36800
N3435       N  0.21319634  0.23497511  0.94360974    -0.37800
N3436       N  0.18324862  0.19845817  0.92652109    -0.39500
C3437       C  0.18204139  0.28893250  0.05121436    -0.04400
C3438       C  0.18278726  0.28303214  0.06779975     0.09700
C3439       C  0.19551527  0.27187321  0.07248842    -0.01800
C3440       C  0.20771899  0.26693558  0.06076737    -0.00100
C3441       C  0.20713017  0.27293853  0.04408219    -0.03700
C3442       C  0.19392631  0.28367940  0.03931960     0.03300
C3443       C  0.17002598  0.28853525  0.08031980     0.10200
C3444       C  0.19588617  0.26533766  0.08939807     0.36100
C3445       C  0.19243356  0.28946283  0.02221720     0.39500
C3446       C  0.15383091  0.28159196  0.08015346    -0.04000
C3447       C  0.14150480  0.28737933  0.09135128     0.03100
C3448       C  0.14546967  0.29978138  0.10328369    -0.03600
C3449       C  0.16178240  0.30673544  0.10333052     0.00100
C3450       C  0.17396360  0.30112008  0.09192194    -0.02400
C3451       C  0.14981757  0.26863270  0.06817542     0.36800
C3452       C  0.16612665  0.31976135  0.11511043     0.40400
C3453       C  0.12453804  0.28141692  0.08943801     0.39600
C3454       C  0.19055813  0.30844952  0.09193710     0.36500
C3455       C  0.16906631  0.30060124  0.04644669     0.37200
C3456       C  0.22045823  0.25511722  0.06582073     0.40400
N3457       N  0.11116551  0.27644003  0.08711358    -0.37600
N3458       N  0.14669126  0.25829824  0.05860636    -0.39200
N3459       N  0.16958311  0.33018707  0.12446555    -0.37000
N3460       N  0.20381162  0.31425572  0.09193128    -0.39400
N3461       N  0.19610301  0.26015187  0.10289476    -0.39100
N3462       N  0.23060282  0.24568912  0.06986899    -0.36800
N3463       N  0.19090586  0.29392997  0.00855661    -0.37800
N3464       N  0.15872701  0.30992341  0.04267072    -0.39500
C3465       C  0.30453904  0.16698434  0.08273279    -0.04400
C3466       C  0.29073101  0.17748139  0.08548013     0.09700
C3467       C  0.28262994  0.17734984  0.10113958    -0.01800
C3468       C  0.28837853  0.16686387  0.11404447    -0.00100
C3469       C  0.30155915  0.15557385  0.11102622    -0.03700
C3470       C  0.30975810  0.15585784  0.09532218     0.03300
C3471       C  0.28496574  0.18913030  0.07207454     0.10200
C3472       C  0.26849804  0.18827417  0.10401279     0.36100
C3473       C  0.32335963  0.14443521  0.09189652     0.39500
C3474       C  0.27595556  0.18302665  0.05826851    -0.04000
C3475       C  0.27006975  0.19410837  0.04589407     0.03100
C3476       C  0.27274840  0.21156703  0.04748119    -0.03600
C3477       C  0.28121980  0.21760512  0.06186599     0.00100
C3478       C  0.28786988  0.20637907  0.07364457    -0.02400
C3479       C  0.27253495  0.16528598  0.05696969     0.36800
C3480       C  0.28280569  0.23533784  0.06510172     0.40400
C3481       C  0.26053398  0.18742339  0.03202741     0.39600
C3482       C  0.29784318  0.21257293  0.08745039     0.36500
C3483       C  0.31354496  0.16785827  0.06701618     0.37200
C3484       C  0.28149457  0.16874813  0.13066138     0.40400
N3485       N  0.25295056  0.18200197  0.02099937    -0.37600
N3486       N  0.26984961  0.15113235  0.05598320    -0.39200
N3487       N  0.28374647  0.24942375  0.06809160    -0.37000
N3488       N  0.30584781  0.21748067  0.09841879    -0.39400
N3489       N  0.25729615  0.19709017  0.10620432    -0.39100
N3490       N  0.27593611  0.17086173  0.14382647    -0.36800
N3491       N  0.33415085  0.13527252  0.08914017    -0.37800
N3492       N  0.32077199  0.16862237  0.05450994    -0.39500
C3493       C  0.32074451  0.29863916  0.04498513    -0.04400
C3494       C  0.32160524  0.31550673  0.04001597     0.09700
C3495       C  0.31070234  0.32150876  0.02754282    -0.01800
C3496       C  0.29875131  0.31075894  0.02032155    -0.00100
C3497       C  0.29791669  0.29385141  0.02528557    -0.03700
C3498       C  0.30928626  0.28774381  0.03728540     0.03300
C3499       C  0.33435458  0.32687264  0.04756462     0.10200
C3500       C  0.31182505  0.33877116  0.02217253     0.36100
C3501       C  0.31000539  0.27002698  0.04085431     0.39500
C3502       C  0.35124941  0.32571901  0.04270438    -0.04000
C3503       C  0.36323263  0.33666870  0.04950891     0.03100
C3504       C  0.35822189  0.34962237  0.06033278    -0.03600
C3505       C  0.34135738  0.35029574  0.06572648     0.00100
C3506       C  0.32955483  0.33878892  0.05953608    -0.02400
C3507       C  0.35626177  0.31328520  0.03057658     0.36800
C3508       C  0.33587587  0.36327356  0.07706254     0.40400
C3509       C  0.38076565  0.33387210  0.04607277     0.39600
C3510       C  0.31241007  0.33921899  0.06541695     0.36500
C3511       C  0.33160918  0.29253961  0.05811449     0.37200
C3512       C  0.28714346  0.31717443  0.00800422     0.40400
N3513       N  0.39467889  0.33109952  0.04335877    -0.37600
N3514       N  0.36019775  0.30334161  0.02090655    -0.39200
N3515       N  0.33146271  0.37366088  0.08603666    -0.37000
N3516       N  0.29875094  0.33950266  0.07015732    -0.39400
N3517       N  0.31276010  0.35255744  0.01795324    -0.39100
N3518       N  0.27788311  0.32228515  0.99817401    -0.36800
N3519       N  0.31093754  0.25584963  0.04338435    -0.37800
N3520       N  0.34023900  0.28772200  0.06864037    -0.39500
C3521       C  0.34067474  0.19763839  0.92638759    -0.04400
C3522       C  0.32818244  0.20887578  0.92123383     0.09700
C3523       C  0.32700474  0.21336748  0.90425468    -0.01800
C3524       C  0.33866303  0.20718859  0.89259463    -0.00100
C3525       C  0.35218009  0.19722817  0.89797906    -0.03700
C3526       C  0.35269916  0.19189951  0.91485750     0.03300
C3527       C  0.31643094  0.21624128  0.93376435     0.10200
C3528       C  0.31372670  0.22437131  0.89881063     0.36100
C3529       C  0.36581445  0.18082051  0.92054465     0.39500
C3530       C  0.32155117  0.22999315  0.94346105    -0.04000
C3531       C  0.31067341  0.23687512  0.95548496     0.03100
C3532       C  0.29438388  0.23025052  0.95766025    -0.03600
C3533       C  0.28909774  0.21682488  0.94745195     0.00100
C3534       C  0.30018493  0.20968536  0.93577729    -0.02400
C3535       C  0.33807060  0.23708007  0.94096317     0.36800
C3536       C  0.27200087  0.21079904  0.94838806     0.40400
C3537       C  0.31650191  0.25047180  0.96590130     0.39600
C3538       C  0.29490703  0.19555366  0.92580131     0.36500
C3539       C  0.34111131  0.19200401  0.94360546     0.37200
C3540       C  0.33586980  0.21007821  0.87497312     0.40400
N3541       N  0.32118052  0.26131656  0.97419686    -0.37600
N3542       N  0.35124492  0.24269691  0.93887828    -0.39200
N3543       N  0.25832492  0.20610855  0.94905279    -0.37000
N3544       N  0.29072097  0.18426500  0.91784787    -0.39400
N3545       N  0.30309596  0.23312840  0.89452154    -0.39100
N3546       N  0.33296229  0.21225219  0.86099369    -0.36800
N3547       N  0.37627274  0.17198963  0.92510580    -0.37800
N3548       N  0.34137403  0.18744078  0.95732254    -0.39500
C3549       C  0.21914411  0.35621292  0.93127540    -0.04400
C3550       C  0.21399166  0.33938320  0.93034816     0.09700
C3551       C  0.20129200  0.33477904  0.91905098    -0.01800
C3552       C  0.19420792  0.34678537  0.90833982    -0.00100
C3553       C  0.20009612  0.36344326  0.90851353    -0.03700
C3554       C  0.21213070  0.36823061  0.92048185     0.03300
C3555       C  0.22161077  0.32648256  0.94151826     0.10200
C3556       C  0.19554812  0.31760895  0.91842528     0.36100
C3557       C  0.21660743  0.38563549  0.92244704     0.39500
C3558       C  0.21755137  0.32604796  0.95867428    -0.04000
C3559       C  0.22430185  0.31357348  0.96905269     0.03100
C3560       C  0.23427364  0.30082327  0.96218196    -0.03600
C3561       C  0.23881654  0.30154869  0.94514733     0.00100
C3562       C  0.23262883  0.31445233  0.93488167    -0.02400
C3563       C  0.20622121  0.33830375  0.96560803     0.36800
C3564       C  0.24961991  0.28887853  0.93811521     0.40400
C3565       C  0.22193600  0.31449550  0.98698138     0.39600
C3566       C  0.23740777  0.31525798  0.91742050     0.36500
C3567       C  0.23153399  0.36117588  0.94350666     0.37200
C3568       C  0.18112845  0.34182701  0.89682715     0.40400
N3569       N  0.22046043  0.31550319  0.00131647    -0.37600
N3570       N  0.19718952  0.34810186  0.97111327    -0.39200
N3571       N  0.25828600  0.27879253  0.93253925    -0.37000
N3572       N  0.24115659  0.31587975  0.90347331    -0.39400
N3573       N  0.19105574  0.30388933  0.91787945    -0.39100
N3574       N  0.17071859  0.33787340  0.88762746    -0.36800
N3575       N  0.22017482  0.39948157  0.92444284    -0.37800
N3576       N  0.24130337  0.36510939  0.95339034    -0.39500
C3577       C  0.38917676  0.46626781  0.88645118    -0.04400
C3578       C  0.37480472  0.47476630  0.88106079     0.09700
C3579       C  0.36059994  0.46576297  0.87595045    -0.01800
C3580       C  0.36064070  0.44820090  0.87634818    -0.00100
C3581       C  0.37508701  0.43945526  0.88174585    -0.03700
C3582       C  0.38945073  0.44869253  0.88661264     0.03300
C3583       C  0.37444168  0.49333545  0.88102513     0.10200
C3584       C  0.34582344  0.47469639  0.87048586     0.36100
C3585       C  0.40479062  0.44028253  0.89127314     0.39500
C3586       C  0.37831977  0.50225425  0.86634585    -0.04000
C3587       C  0.37723353  0.51978602  0.86613242     0.03100
C3588       C  0.37261123  0.52850630  0.88074020    -0.03600
C3589       C  0.36881144  0.51945029  0.89544929     0.00100
C3590       C  0.36969239  0.50192855  0.89556276    -0.02400
C3591       C  0.38368329  0.49332685  0.85155483     0.36800
C3592       C  0.36325001  0.52800908  0.91033151     0.40400
C3593       C  0.38148890  0.52877865  0.85100965     0.39600
C3594       C  0.36559286  0.49264821  0.91061208     0.36500
C3595       C  0.40367684  0.47570677  0.89189362     0.37200
C3596       C  0.34555704  0.43932859  0.87155526     0.40400
N3597       N  0.38513310  0.53562474  0.83879297    -0.37600
N3598       N  0.38804457  0.48616687  0.83981222    -0.39200
N3599       N  0.35847082  0.53441214  0.92234575    -0.37000
N3600       N  0.36233997  0.48520507  0.92258861    -0.39400
N3601       N  0.33409213  0.48189318  0.86614750    -0.39100
N3602       N  0.33352732  0.43231028  0.86765464    -0.36800
N3603       N  0.41704473  0.43361135  0.89497203    -0.37800
N3604       N  0.41518539  0.48327227  0.89629166    -0.39500
C3605       C  0.46514930  0.37027374  0.86469841    -0.04400
C3606       C  0.47481011  0.37362256  0.87895834     0.09700
C3607       C  0.46701458  0.37810343  0.89406376    -0.01800
C3608       C  0.44945434  0.37876040  0.89508366    -0.00100
C3609       C  0.43961500  0.37529909  0.88078443    -0.03700
C3610       C  0.44763997  0.37144231  0.86546971     0.03300
C3611       C  0.49334318  0.37303805  0.87786576     0.10200
C3612       C  0.47715905  0.38204687  0.90853895     0.36100
C3613       C  0.43802051  0.36933421  0.85025876     0.39500
C3614       C  0.50227671  0.38745892  0.87322276    -0.04000
C3615       C  0.51980246  0.38705988  0.87229356     0.03100
C3616       C  0.52853802  0.37231595  0.87638213    -0.03600
C3617       C  0.51948012  0.35776702  0.88071340     0.00100
C3618       C  0.50190041  0.35811538  0.88133898    -0.02400
C3619       C  0.49335584  0.40273645  0.86944720     0.36800
C3620       C  0.52817407  0.34266472  0.88540118     0.40400
C3621       C  0.52869879  0.40172639  0.86652813     0.39600
C3622       C  0.49255626  0.34320682  0.88575863     0.36500
C3623       C  0.47332055  0.36565789  0.84919807     0.37200
C3624       C  0.44165938  0.38257615  0.91099193     0.40400
N3625       N  0.53533108  0.41356753  0.86151270    -0.37600
N3626       N  0.48621165  0.41490417  0.86646612    -0.39200
N3627       N  0.53481059  0.33050332  0.88941333    -0.37000
N3628       N  0.48505914  0.33133096  0.88924657    -0.39400
N3629       N  0.48530854  0.38524282  0.92002077    -0.39100
N3630       N  0.43550315  0.38564690  0.92370015    -0.36800
N3631       N  0.43035166  0.36773453  0.83812553    -0.37800
N3632       N  0.47988443  0.36191211  0.83688849    -0.39500
C3633       C  0.28428632  0.38089590  0.86744829    -0.04400
C3634       C  0.27482840  0.37701071  0.88175399     0.09700
C3635       C  0.28291463  0.37170207  0.89643495    -0.01800
C3636       C  0.30050248  0.37085253  0.89707098    -0.00100
C3637       C  0.31021023  0.37520437  0.88285079    -0.03700
C3638       C  0.30185619  0.37991191  0.86788498     0.03300
C3639       C  0.25625907  0.37872632  0.88140540     0.10200
C3640       C  0.27306330  0.36719617  0.91097356     0.36100
C3641       C  0.31113161  0.38337841  0.85266161     0.39500
C3642       C  0.24609126  0.36463556  0.87872953    -0.04000
C3643       C  0.22856988  0.36619541  0.87882732     0.03100
C3644       C  0.22105613  0.38184683  0.88189048    -0.03600
C3645       C  0.23134982  0.39603905  0.88410255     0.00100
C3646       C  0.24888200  0.39448738  0.88370493    -0.02400
C3647       C  0.25374100  0.34853583  0.87576374     0.36800
C3648       C  0.22405779  0.41211463  0.88777253     0.40400
C3649       C  0.21837798  0.35169975  0.87526170     0.39600
C3650       C  0.25941849  0.40908150  0.88586278     0.36500
C3651       C  0.27581414  0.38586947  0.85221726     0.37200
C3652       C  0.30842937  0.36592524  0.91259924     0.35600
N3653       N  0.21061216  0.33993709  0.87207969    -0.37600
N3654       N  0.25988809  0.33571822  0.87338565    -0.39200
N3655       N  0.21865956  0.42509668  0.89093619    -0.37000
N3656       N  0.26787619  0.42069641  0.88747474    -0.39400
N3657       N  0.26525389  0.36348617  0.92256786    -0.39100
N3658       N  0.31467961  0.36193455  0.92499845    -0.36800
N3659       N  0.31846065  0.38619093  0.84049929    -0.37800
N3660       N  0.26897998  0.38984008  0.84012832    -0.39500
C3661       C  0.37032563  0.38736664  0.79134912    -0.04400
C3662       C  0.37327097  0.37225668  0.78293294     0.09700
C3663       C  0.37602094  0.35750133  0.79206947    -0.01800
C3664       C  0.37615538  0.35787881  0.80967031    -0.00100
C3665       C  0.37362965  0.37313784  0.81824093    -0.03700
C3666       C  0.37061146  0.38787940  0.80892077     0.03300
C3667       C  0.37431562  0.37218370  0.76435160     0.10200
C3668       C  0.37877683  0.34195200  0.78326963     0.36100
C3669       C  0.36847290  0.40378005  0.81727039     0.39500
C3670       C  0.38944472  0.37655085  0.75647427    -0.04000
C3671       C  0.39019023  0.37806516  0.73897757     0.03100
C3672       C  0.37588470  0.37473191  0.72916938    -0.03600
C3673       C  0.36089803  0.36970066  0.73714203     0.00100
C3674       C  0.36008846  0.36859368  0.75468937    -0.02400
C3675       C  0.40420074  0.37975084  0.76649336     0.36800
C3676       C  0.34639307  0.36516279  0.72736935     0.40400
C3677       C  0.40544178  0.38414040  0.73133628     0.39600
C3678       C  0.34460802  0.36382873  0.76287288     0.36500
C3679       C  0.36718292  0.40245297  0.78181402     0.37200
C3680       C  0.37854643  0.34243927  0.81885440     0.40400
N3681       N  0.41775945  0.38933730  0.72578386    -0.37600
N3682       N  0.41594755  0.38224360  0.77452143    -0.39200
N3683       N  0.33467681  0.36122954  0.71989112    -0.37000
N3684       N  0.33227514  0.36000782  0.76942173    -0.39400
N3685       N  0.38093234  0.32957955  0.77619005    -0.39100
N3686       N  0.38048026  0.33011825  0.82615278    -0.36800
N3687       N  0.36677108  0.41646403  0.82391442    -0.37800
N3688       N  0.36466195  0.41443453  0.77415034    -0.39500
C3689       C  0.38281004  0.38732560  0.97478074    -0.04400
C3690       C  0.38096941  0.37197147  0.98316994     0.09700
C3691       C  0.37871982  0.35718729  0.97397970    -0.01800
C3692       C  0.37781880  0.35779500  0.95639733    -0.00100
C3693       C  0.37885428  0.37330757  0.94790185    -0.03700
C3694       C  0.38165463  0.38806083  0.95723391     0.03300
C3695       C  0.38048099  0.37159320  0.00179421     0.10200
C3696       C  0.37726063  0.34136456  0.98270161     0.36100
C3697       C  0.38280885  0.40414428  0.94895087     0.39500
C3698       C  0.36516929  0.37392016  0.01013532    -0.04000
C3699       C  0.36468482  0.37473107  0.02768881     0.03100
C3700       C  0.37944946  0.37249910  0.03709436    -0.03600
C3701       C  0.39472133  0.36964103  0.02863730     0.00100
C3702       C  0.39526472  0.36950987  0.01104587    -0.02400
C3703       C  0.34991019  0.37563603  0.00054160     0.36800
C3704       C  0.40978407  0.36600685  0.03792619     0.40400
C3705       C  0.34907927  0.37869225  0.03590290     0.39600
C3706       C  0.41102551  0.36722606  0.00240319     0.36500
C3707       C  0.38570591  0.40241306  0.98433079     0.37200
C3708       C  0.37641276  0.34234985  0.94709208     0.40400
N3709       N  0.33648557  0.38211463  0.04209839    -0.37600
N3710       N  0.33777934  0.37692013  0.99281568    -0.39200
N3711       N  0.42195568  0.36277034  0.04498257    -0.37000
N3712       N  0.42359998  0.36544804  0.99549730    -0.39400
N3713       N  0.37611040  0.32877113  0.98970826    -0.39100
N3714       N  0.37537069  0.33002515  0.93967022    -0.36800
N3715       N  0.38376973  0.41699580  0.94239854    -0.37800
N3716       N  0.38806484  0.41438515  0.99201817    -0.39500
C3717       C  0.35902787  0.28364963  0.88485414    -0.04400
C3718       C  0.37353132  0.27497419  0.88015304     0.09700
C3719       C  0.38827128  0.28374348  0.87623105    -0.01800
C3720       C  0.38870222  0.30124504  0.87738305    -0.00100
C3721       C  0.37416376  0.31017029  0.88219334    -0.03700
C3722       C  0.35926217  0.30119269  0.88582249     0.03300
C3723       C  0.37348755  0.25644167  0.87961657     0.10200
C3724       C  0.40300982  0.27463433  0.87094600     0.36100
C3725       C  0.34393888  0.30987154  0.89001461     0.39500
C3726       C  0.37020542  0.24812928  0.86451878    -0.04000
C3727       C  0.37107982  0.23061998  0.86381805     0.03100
C3728       C  0.37515190  0.22134302  0.87828026    -0.03600
C3729       C  0.37834431  0.22978438  0.89341839     0.00100
C3730       C  0.37749481  0.24728691  0.89407306    -0.02400
C3731       C  0.36589645  0.25767190  0.84972792     0.36800
C3732       C  0.38326615  0.22058370  0.90818065     0.40400
C3733       C  0.36715616  0.22226324  0.84831368     0.39600
C3734       C  0.38102741  0.25598377  0.90954290     0.36500
C3735       C  0.34379811  0.27443970  0.88846747     0.37200
C3736       C  0.40433038  0.30985486  0.87396005     0.40400
N3737       N  0.36367561  0.21605089  0.83576413    -0.37600
N3738       N  0.36244083  0.26531139  0.83795863    -0.39200
N3739       N  0.38744428  0.21355009  0.92008779    -0.37000
N3740       N  0.38384594  0.26299038  0.92183835    -0.39400
N3741       N  0.41467054  0.26729273  0.86666249    -0.39100
N3742       N  0.41680637  0.31665250  0.87115793    -0.36800
N3743       N  0.33170647  0.31676004  0.89337073    -0.37800
N3744       N  0.33166942  0.26705515  0.89129382    -0.39500
C3745       C  0.20590117  0.43677089  0.80429737    -0.04400
C3746       C  0.21355965  0.43554476  0.82010782     0.09700
C3747       C  0.22748906  0.44564489  0.82386511    -0.01800
C3748       C  0.23327829  0.45751215  0.81220984    -0.00100
C3749       C  0.22539715  0.45909714  0.79645703    -0.03700
C3750       C  0.21182653  0.44847010  0.79246730     0.03300
C3751       C  0.20676279  0.42403918  0.83319220     0.10200
C3752       C  0.23595095  0.44365041  0.83976621     0.36100
C3753       C  0.20434334  0.44909914  0.77598374     0.39500
C3754       C  0.21028866  0.40684638  0.83267807    -0.04000
C3755       C  0.20481896  0.39627832  0.84570368     0.03100
C3756       C  0.19676018  0.40300707  0.85987519    -0.03600
C3757       C  0.19258633  0.42016830  0.85997864     0.00100
C3758       C  0.19746788  0.43058101  0.84661897    -0.02400
C3759       C  0.21972525  0.40007468  0.81880173     0.36800
C3760       C  0.18363874  0.42731506  0.87400236     0.40400
C3761       C  0.20634741  0.37841256  0.84374156     0.39600
C3762       C  0.19315769  0.44815018  0.84674756     0.36500
C3763       C  0.19206382  0.42583107  0.80014682     0.37200
C3764       C  0.24707600  0.46838813  0.81672493     0.40400
N3765       N  0.20735130  0.36421056  0.84148079    -0.37600
N3766       N  0.22727063  0.39469016  0.80773408    -0.39200
N3767       N  0.17654073  0.43308444  0.88517205    -0.37000
N3768       N  0.18975287  0.46216508  0.84678385    -0.39400
N3769       N  0.24266369  0.44191702  0.85243620    -0.39100
N3770       N  0.25808886  0.47703438  0.82034234    -0.36800
N3771       N  0.19844389  0.44958120  0.76280671    -0.37800
N3772       N  0.18113003  0.41699584  0.79675945    -0.39500
C3773       C  0.32449662  0.53492157  0.85212795    -0.04400
C3774       C  0.32609702  0.54000356  0.83535064     0.09700
C3775       C  0.33895096  0.55112548  0.83070781    -0.01800
C3776       C  0.35049492  0.55678488  0.84272197    -0.00100
C3777       C  0.34931951  0.55122953  0.85950285    -0.03700
C3778       C  0.33582386  0.54081245  0.86424196     0.03300
C3779       C  0.31395368  0.53390331  0.82258972     0.10200
C3780       C  0.34025586  0.55670718  0.81350704     0.36100
C3781       C  0.33257211  0.53727354  0.88168048     0.39500
C3782       C  0.29924905  0.54295160  0.81936955    -0.04000
C3783       C  0.28766879  0.53713415  0.80746721     0.03100
C3784       C  0.29091547  0.52234361  0.79836544    -0.03600
C3785       C  0.30569140  0.51321550  0.80180175     0.00100
C3786       C  0.31712400  0.51901488  0.81387162    -0.02400
C3787       C  0.29607459  0.55830608  0.82835824     0.36800
C3788       C  0.30943160  0.49800723  0.79276823     0.40400
C3789       C  0.27208757  0.54606258  0.80519283     0.39600
C3790       C  0.33229988  0.50976364  0.81729008     0.36500
C3791       C  0.31100518  0.52375522  0.85691690     0.37200
C3792       C  0.36364832  0.56824522  0.83769244     0.40400
N3793       N  0.25963107  0.55313545  0.80343340    -0.37600
N3794       N  0.29359189  0.57058099  0.83549611    -0.39200
N3795       N  0.31241293  0.48582394  0.78565685    -0.37000
N3796       N  0.34443253  0.50246291  0.82006781    -0.39400
N3797       N  0.34122851  0.56114785  0.79977849    -0.39100
N3798       N  0.37409817  0.57742150  0.83365644    -0.36800
N3799       N  0.32925993  0.53452365  0.89548178    -0.37800
N3800       N  0.30024715  0.51482727  0.86068603    -0.39500
C3801       C  0.18691001  0.55650776  0.79504974    -0.04400
C3802       C  0.18339448  0.57076508  0.78534393     0.09700
C3803       C  0.19168008  0.57324328  0.76997322    -0.01800
C3804       C  0.20339998  0.56142730  0.76426149    -0.00100
C3805       C  0.20682491  0.54704851  0.77391626    -0.03700
C3806       C  0.19860505  0.54469762  0.78937506     0.03300
C3807       C  0.17102234  0.58329073  0.79141257     0.10200
C3808       C  0.18801608  0.58795450  0.76006083     0.36100
C3809       C  0.20260056  0.53036708  0.79970904     0.39500
C3810       C  0.17636831  0.59683940  0.80123935    -0.04000
C3811       C  0.16476778  0.60883640  0.80672664     0.03100
C3812       C  0.14769679  0.60737440  0.80234641    -0.03600
C3813       C  0.14224396  0.59313312  0.79350028     0.00100
C3814       C  0.15393738  0.58140429  0.78763137    -0.02400
C3815       C  0.19388852  0.59848639  0.80553088     0.36800
C3816       C  0.12458674  0.58969034  0.79158038     0.40400
C3817       C  0.17052335  0.62283217  0.81664639     0.39600
C3818       C  0.14842226  0.56736156  0.77765015     0.36500
C3819       C  0.17852293  0.55406756  0.81093851     0.37200
C3820       C  0.21156594  0.56385217  0.74825424     0.40400
N3821       N  0.17510697  0.63397988  0.82458336    -0.37600
N3822       N  0.20787600  0.59975892  0.80893431    -0.39200
N3823       N  0.11060607  0.58626617  0.79022257    -0.37000
N3824       N  0.14404123  0.55620521  0.76961485    -0.39400
N3825       N  0.18500039  0.59973576  0.75226341    -0.39100
N3826       N  0.21804225  0.56581636  0.73546483    -0.36800
N3827       N  0.20589273  0.51895208  0.80792652    -0.37800
N3828       N  0.17182861  0.55213288  0.82361668    -0.39500
C3829       C  0.19740258  0.45895461  0.69053636    -0.04400
C3830       C  0.18281643  0.46803038  0.68686468     0.09700
C3831       C  0.17980235  0.48341202  0.69477970    -0.01800
C3832       C  0.19131393  0.48967924  0.70649530    -0.00100
C3833       C  0.20589107  0.48054498  0.71030239    -0.03700
C3834       C  0.20899530  0.46524493  0.70214167     0.03300
C3835       C  0.17034395  0.46119461  0.67490921     0.10200
C3836       C  0.16479473  0.49271280  0.69083322     0.36100
C3837       C  0.22391571  0.45574689  0.70598347     0.39500
C3838       C  0.15709318  0.45124331  0.68087230    -0.04000
C3839       C  0.14496542  0.44517517  0.66973147     0.03100
C3840       C  0.14596328  0.44916402  0.65251298    -0.03600
C3841       C  0.15971594  0.45850410  0.64648148     0.00100
C3842       C  0.17176329  0.46468573  0.65771310    -0.02400
C3843       C  0.15593212  0.44733978  0.69854122     0.36800
C3844       C  0.16213626  0.46094012  0.62871244     0.40400
C3845       C  0.13118559  0.43521942  0.67615341     0.39600
C3846       C  0.18573150  0.47455625  0.65162743     0.36500
C3847       C  0.20030896  0.44301263  0.68253706     0.37200
C3848       C  0.18843714  0.50578569  0.71417415     0.40400
N3849       N  0.12015969  0.42734411  0.68126960    -0.37600
N3850       N  0.15503647  0.44422263  0.71263112    -0.39200
N3851       N  0.16454340  0.46285950  0.61458823    -0.37000
N3852       N  0.19690281  0.48242161  0.64682637    -0.39400
N3853       N  0.15278707  0.50003765  0.68761658    -0.39100
N3854       N  0.18617126  0.51866821  0.72023791    -0.36800
N3855       N  0.23585068  0.44823219  0.70903499    -0.37800
N3856       N  0.20258938  0.43027255  0.67618911    -0.39500
C3857       C  0.30541122  0.43034221  0.73789497    -0.04400
C3858       C  0.31623216  0.43379465  0.72442290     0.09700
C3859       C  0.31452995  0.44881759  0.71540588    -0.01800
C3860       C  0.30227119  0.46054209  0.72001314    -0.00100
C3861       C  0.29156326  0.45731824  0.73376391    -0.03700
C3862       C  0.29301161  0.44195565  0.74246999     0.03300
C3863       C  0.32921186  0.42141497  0.71932158     0.10200
C3864       C  0.32550753  0.45219488  0.70135727     0.36100
C3865       C  0.28130297  0.43770147  0.75568237     0.39500
C3866       C  0.32527546  0.40902042  0.70752699    -0.04000
C3867       C  0.33772214  0.39798865  0.70184345     0.03100
C3868       C  0.35426239  0.39916478  0.70804759    -0.03600
C3869       C  0.35822858  0.41193078  0.71955959     0.00100
C3870       C  0.34566105  0.42276703  0.72542833    -0.02400
C3871       C  0.30838387  0.40781212  0.70109268     0.36800
C3872       C  0.37541008  0.41504515  0.72426269     0.40400
C3873       C  0.33341311  0.38544615  0.68954041     0.39600
C3874       C  0.34968948  0.43561415  0.73750476     0.36500
C3875       C  0.30705671  0.41476807  0.74699905     0.37200
C3876       C  0.30100894  0.47605753  0.71073574     0.40400
N3877       N  0.32993651  0.37547032  0.67971371    -0.37600
N3878       N  0.29489069  0.40692570  0.69600290    -0.39200
N3879       N  0.38902137  0.41815290  0.72799079    -0.37000
N3880       N  0.35286335  0.44585368  0.74715926    -0.39400
N3881       N  0.33428523  0.45483826  0.69015873    -0.39100
N3882       N  0.29995521  0.48838792  0.70327056    -0.36800
N3883       N  0.27190254  0.43427037  0.76614819    -0.37800
N3884       N  0.30841476  0.40234058  0.75424477    -0.39500
C3885       C  0.29135053  0.56417003  0.69985286    -0.04400
C3886       C  0.28088928  0.56833368  0.68633009     0.09700
C3887       C  0.26544456  0.56009770  0.68428272    -0.01800
C3888       C  0.26030233  0.54793471  0.69595882    -0.00100
C3889       C  0.27072918  0.54383332  0.70957788    -0.03700
C3890       C  0.28633915  0.55185345  0.71139911     0.03300
C3891       C  0.28631023  0.58133839  0.67412728     0.10200
C3892       C  0.25487606  0.56422015  0.67017439     0.36100
C3893       C  0.29744001  0.54709534  0.72488398     0.39500
C3894       C  0.29615385  0.57683358  0.66028889    -0.04000
C3895       C  0.30192721  0.58916155  0.64912725     0.03100
C3896       C  0.29732689  0.60604576  0.65139561    -0.03600
C3897       C  0.28781769  0.61056470  0.66555144     0.00100
C3898       C  0.28224862  0.59820396  0.67683246    -0.02400
C3899       C  0.30024507  0.55944311  0.65753105     0.36800
C3900       C  0.28469998  0.62794495  0.66926327     0.40400
C3901       C  0.31242540  0.58435676  0.63516161     0.39600
C3902       C  0.27255513  0.60280954  0.69142284     0.36500
C3903       C  0.30727049  0.57262153  0.70183853     0.37200
C3904       C  0.24403788  0.54006816  0.69429687     0.40400
N3905       N  0.32083918  0.58053192  0.62405927    -0.37600
N3906       N  0.30342853  0.54555382  0.65533608    -0.39200
N3907       N  0.28223179  0.64170554  0.67277156    -0.37000
N3908       N  0.26485709  0.60644238  0.70309434    -0.39400
N3909       N  0.24650724  0.56751404  0.65887528    -0.39100
N3910       N  0.23104848  0.53381665  0.69305064    -0.36800
N3911       N  0.30633564  0.54321957  0.73557799    -0.37800
N3912       N  0.31994382  0.57942590  0.70336947    -0.39500
C3913       C  0.43443908  0.23530422  0.81407537    -0.04400
C3914       C  0.43605482  0.21926778  0.82119484     0.09700
C3915       C  0.44921240  0.20879824  0.81601943    -0.01800
C3916       C  0.46049770  0.21418127  0.80356304    -0.00100
C3917       C  0.45874326  0.23011809  0.79621119    -0.03700
C3918       C  0.44572592  0.24071237  0.80158265     0.03300
C3919       C  0.42344645  0.21301979  0.83359825     0.10200
C3920       C  0.45103702  0.19240097  0.82347170     0.36100
C3921       C  0.44417515  0.25731363  0.79452575     0.39500
C3922       C  0.41035482  0.20252266  0.82826045    -0.04000
C3923       C  0.39877540  0.19604998  0.83989533     0.03100
C3924       C  0.39983128  0.20046559  0.85696905    -0.03600
C3925       C  0.41324635  0.21064156  0.86235792     0.00100
C3926       C  0.42492307  0.21699566  0.85067802    -0.02400
C3927       C  0.40879531  0.19844188  0.81069477     0.36800
C3928       C  0.41589550  0.21359914  0.87998539     0.40400
C3929       C  0.38565058  0.18492789  0.83418509     0.39600
C3930       C  0.43869280  0.22738381  0.85623113     0.36500
C3931       C  0.42109999  0.24617534  0.81961461     0.37200
C3932       C  0.47357896  0.20306248  0.79787190     0.40400
N3933       N  0.37516531  0.17607482  0.82964261    -0.37600
N3934       N  0.40758453  0.19523242  0.79667016    -0.39200
N3935       N  0.41857052  0.21593321  0.89397863    -0.37000
N3936       N  0.44969103  0.23567470  0.86062458    -0.39400
N3937       N  0.45247052  0.17932088  0.82942801    -0.39100
N3938       N  0.48399220  0.19421261  0.79325839    -0.36800
N3939       N  0.44296999  0.27056834  0.78890855    -0.37800
N3940       N  0.41046307  0.25480904  0.82412910    -0.39500
C3941       C  0.52166354  0.30620749  0.82025242    -0.04400
C3942       C  0.53728807  0.31408863  0.81796669     0.09700
C3943       C  0.54699466  0.31033931  0.80373776    -0.01800
C3944       C  0.54092991  0.29903898  0.79165615    -0.00100
C3945       C  0.52531725  0.29107202  0.79399329    -0.03700
C3946       C  0.51572642  0.29468064  0.80835900     0.03300
C3947       C  0.54314788  0.32686410  0.83028335     0.10200
C3948       C  0.56325112  0.31809275  0.80160531     0.36100
C3949       C  0.49940168  0.28705028  0.81054410     0.39500
C3950       C  0.55355494  0.32225601  0.84368125    -0.04000
C3951       C  0.55829130  0.33418101  0.85575157     0.03100
C3952       C  0.55269549  0.35090905  0.85446903    -0.03600
C3953       C  0.54326821  0.35566818  0.84032100     0.00100
C3954       C  0.53815817  0.34361519  0.82854834    -0.02400
C3955       C  0.55939335  0.30519936  0.84498747     0.36800
C3956       C  0.54007340  0.37308666  0.83686355     0.40400
C3957       C  0.56884253  0.32910319  0.86955768     0.39600
C3958       C  0.52789290  0.34845281  0.81443827     0.36500
C3959       C  0.51163533  0.31014399  0.83481045     0.37200
C3960       C  0.55083300  0.29548511  0.77690962     0.40400
N3961       N  0.57729865  0.32503630  0.88053490    -0.37600
N3962       N  0.56411577  0.29160624  0.84594029    -0.39200
N3963       N  0.53766507  0.38685802  0.83330418    -0.37000
N3964       N  0.51968468  0.35224017  0.80317816    -0.39400
N3965       N  0.57626947  0.32420931  0.79998634    -0.39100
N3966       N  0.55869794  0.29270052  0.76510895    -0.36800
N3967       N  0.48636469  0.28097640  0.81218662    -0.37800
N3968       N  0.50367762  0.31335676  0.84643370    -0.39500
C3969       C  0.56126073  0.17994141  0.76492550    -0.04400
C3970       C  0.56784179  0.18099141  0.78116850     0.09700
C3971       C  0.56404292  0.19482940  0.79124054    -0.01800
C3972       C  0.55308467  0.20728026  0.78541174    -0.00100
C3973       C  0.54566582  0.20596165  0.76934588    -0.03700
C3974       C  0.55053681  0.19250914  0.75884630     0.03300
C3975       C  0.57908141  0.16761167  0.78764664     0.10200
C3976       C  0.57153293  0.19624180  0.80766910     0.36100
C3977       C  0.54495987  0.19150962  0.74165479     0.39500
C3978       C  0.59633387  0.16820264  0.78421569    -0.04000
C3979       C  0.60707464  0.15601061  0.79093946     0.03100
C3980       C  0.60049417  0.14255955  0.80037777    -0.03600
C3981       C  0.58315455  0.14220340  0.80402617     0.00100
C3982       C  0.57253819  0.15471527  0.79771184    -0.02400
C3983       C  0.60302882  0.18155282  0.77390132     0.36800
C3984       C  0.57607559  0.12882764  0.81405071     0.40400
C3985       C  0.62494645  0.15825286  0.78922944     0.39600
C3986       C  0.55481415  0.15435887  0.80152189     0.36500
C3987       C  0.56547031  0.16574630  0.75452957     0.37200
C3988       C  0.55018189  0.22179965  0.79579940     0.40400
N3989       N  0.63913498  0.16070890  0.78790926    -0.37600
N3990       N  0.60830424  0.19217413  0.76560179    -0.39200
N3991       N  0.57038085  0.11816635  0.82201977    -0.37000
N3992       N  0.54068000  0.15415592  0.80457258    -0.39400
N3993       N  0.57753949  0.19734444  0.82075341    -0.39100
N3994       N  0.54794396  0.23339588  0.80407284    -0.36800
N3995       N  0.54094964  0.19074813  0.72779883    -0.37800
N3996       N  0.56883350  0.15438423  0.74631656    -0.39500
C3997       C  0.45741810  0.19600190  0.68826321    -0.04400
C3998       C  0.46576850  0.18061602  0.68686544     0.09700
C3999       C  0.47889856  0.17677490  0.69788502    -0.01800
C4000       C  0.48388306  0.18843217  0.71008884    -0.00100
C4001       C  0.47622349  0.20432995  0.71089825    -0.03700
C4002       C  0.46260546  0.20784150  0.70019761     0.03300
C4003       C  0.46047357  0.16838764  0.67383520     0.10200
C4004       C  0.48733456  0.16084278  0.69652642     0.36100
C4005       C  0.45405556  0.22372700  0.70115010     0.39500
C4006       C  0.46696583  0.16958980  0.65751328    -0.04000
C4007       C  0.46079209  0.15914327  0.64478155     0.03100
C4008       C  0.44900775  0.14650853  0.64857679    -0.03600
C4009       C  0.44255970  0.14532372  0.66504578     0.00100
C4010       C  0.44818194  0.15632829  0.67754980    -0.02400
C4011       C  0.47991587  0.18175425  0.65381840     0.36800
C4012       C  0.43018269  0.13272544  0.66926353     0.40400
C4013       C  0.46542983  0.16261387  0.62763945     0.39600
C4014       C  0.44123918  0.15537834  0.69427040     0.36500
C4015       C  0.44357029  0.19968134  0.67720004     0.37200
C4016       C  0.49617056  0.18361167  0.72245154     0.40400
N4017       N  0.46907775  0.16608693  0.61408387    -0.37600
N4018       N  0.49034325  0.19136935  0.65092270    -0.39200
N4019       N  0.42028045  0.12271997  0.67265081    -0.37000
N4020       N  0.43569693  0.15469057  0.70760915    -0.39400
N4021       N  0.49406451  0.14814810  0.69533674    -0.39100
N4022       N  0.50569137  0.17953073  0.73250201    -0.36800
N4023       N  0.44710564  0.23633051  0.70195777    -0.37800
N4024       N  0.43253512  0.20253067  0.66833737    -0.39500
C4025       C  0.56751692  0.26535279  0.68755152    -0.04400
C4026       C  0.56457268  0.28043504  0.67894400     0.09700
C4027       C  0.55108247  0.29063920  0.68383990    -0.01800
C4028       C  0.53993330  0.28530275  0.69642111    -0.00100
C4029       C  0.54246848  0.26987538  0.70470424    -0.03700
C4030       C  0.55657459  0.26009978  0.70038873     0.03300
C4031       C  0.57508231  0.28538961  0.66420088     0.10200
C4032       C  0.54864660  0.30671163  0.67581774     0.36100
C4033       C  0.56018053  0.24477850  0.70937590     0.39500
C4034       C  0.56774500  0.28612965  0.64817253    -0.04000
C4035       C  0.57667610  0.29301692  0.63466573     0.03100
C4036       C  0.59372359  0.29697035  0.63641527    -0.03600
C4037       C  0.60113579  0.29636423  0.65239270     0.00100
C4038       C  0.59175555  0.29084101  0.66631310    -0.02400
C4039       C  0.55085872  0.28003574  0.64561183     0.36800
C4040       C  0.61789721  0.30280037  0.65479776     0.40400
C4041       C  0.56779727  0.29791848  0.61969840     0.39600
C4042       C  0.59908828  0.29125670  0.68285648     0.36500
C4043       C  0.58199176  0.25533525  0.68343109     0.37200
C4044       C  0.52548686  0.29550398  0.70025400     0.40400
N4045       N  0.56048693  0.30237156  0.60806603    -0.37600
N4046       N  0.53741017  0.27512341  0.64357145    -0.39200
N4047       N  0.63111443  0.30825627  0.65696385    -0.37000
N4048       N  0.60496594  0.29154152  0.69604528    -0.39400
N4049       N  0.54672086  0.31948141  0.66934732    -0.39100
N4050       N  0.51397827  0.30366896  0.70326051    -0.36800
N4051       N  0.56307579  0.23255306  0.71650805    -0.37800
N4052       N  0.59373345  0.24748135  0.68051971    -0.39500
C4053       C  0.44196013  0.30702811  0.70872357    -0.04400
C4054       C  0.43632078  0.31922157  0.72008272     0.09700
C4055       C  0.44250433  0.31932136  0.73657082    -0.01800
C4056       C  0.45403602  0.30709219  0.74177388    -0.00100
C4057       C  0.45938049  0.29465496  0.73052203    -0.03700
C4058       C  0.45340241  0.29472489  0.71395130     0.03300
C4059       C  0.42350358  0.33171940  0.71479219     0.10200
C4060       C  0.43693277  0.33203403  0.74814624     0.36100
C4061       C  0.45930505  0.28233315  0.70219676     0.39500
C4062       C  0.40644083  0.32871737  0.71806314    -0.04000
C4063       C  0.39427282  0.34037438  0.71300589     0.03100
C4064       C  0.39911717  0.35532674  0.70493520    -0.03600
C4065       C  0.41619614  0.35792351  0.70098775     0.00100
C4066       C  0.42835096  0.34633636  0.70623071    -0.02400
C4067       C  0.40143061  0.31350245  0.72656662     0.36800
C4068       C  0.42137131  0.37264548  0.69172541     0.40400
C4069       C  0.37675317  0.33627404  0.71502294     0.39600
C4070       C  0.44591758  0.34956926  0.70310696     0.36500
C4071       C  0.43598540  0.30720586  0.69164078     0.37200
C4072       C  0.46013510  0.30707055  0.75882088     0.40400
N4073       N  0.36287223  0.33248407  0.71649823    -0.37600
N4074       N  0.39748523  0.30136836  0.73338400    -0.39200
N4075       N  0.42549841  0.38438260  0.68433469    -0.37000
N4076       N  0.45994466  0.35217912  0.70070912    -0.39400
N4077       N  0.43243998  0.34221882  0.75731067    -0.39100
N4078       N  0.46501008  0.30701795  0.77241726    -0.36800
N4079       N  0.46407701  0.27248468  0.69280849    -0.37800
N4080       N  0.43126109  0.30743168  0.67799419    -0.39500
C4081       C  0.40701987  0.82071015  0.20285623    -0.04400
C4082       C  0.42105514  0.82772646  0.21080649     0.09700
C4083       C  0.42227710  0.84514421  0.21271447    -0.01800
C4084       C  0.40935133  0.85554255  0.20689681    -0.00100
C4085       C  0.39486392  0.84850892  0.19965635    -0.03700
C4086       C  0.39402398  0.83104998  0.19716477     0.03300
C4087       C  0.43454832  0.81661084  0.21716618     0.10200
C4088       C  0.43697467  0.85233525  0.22049397     0.36100
C4089       C  0.37974132  0.82361640  0.18885604     0.39500
C4090       C  0.44675888  0.81045338  0.20617352    -0.04000
C4091       C  0.45853029  0.79865199  0.21176403     0.03100
C4092       C  0.45856238  0.79328399  0.22874760    -0.03600
C4093       C  0.44663930  0.80032512  0.23991470     0.00100
C4094       C  0.43457174  0.81166207  0.23401304    -0.02400
C4095       C  0.44715158  0.81633565  0.18901267     0.36800
C4096       C  0.44635862  0.79594767  0.25750850     0.40400
C4097       C  0.47052454  0.79225366  0.19979083     0.39600
C4098       C  0.42185363  0.81807442  0.24522106     0.36500
C4099       C  0.40595779  0.80277601  0.20066770     0.37200
C4100       C  0.41171723  0.87344785  0.20715186     0.40400
N4101       N  0.47988163  0.78709564  0.19007246    -0.37600
N4102       N  0.44751210  0.82109632  0.17536270    -0.39200
N4103       N  0.44611153  0.79274204  0.27160692    -0.37000
N4104       N  0.41165057  0.82316832  0.25407777    -0.39400
N4105       N  0.44869281  0.85805103  0.22672771    -0.39100
N4106       N  0.41421705  0.88766436  0.20717510    -0.36800
N4107       N  0.36835931  0.81763101  0.18226363    -0.37800
N4108       N  0.40521313  0.78846854  0.19894468    -0.39500
C4109       C  0.55094841  0.84505913  0.32439731    -0.04400
C4110       C  0.54002347  0.83188091  0.32865130     0.09700
C4111       C  0.53484387  0.82988400  0.34538362    -0.01800
C4112       C  0.54058290  0.84095433  0.35782348    -0.00100
C4113       C  0.55122517  0.85443423  0.35354677    -0.03700
C4114       C  0.55671782  0.85613388  0.33679620     0.03300
C4115       C  0.53448297  0.81963229  0.31563620     0.10200
C4116       C  0.52377043  0.81619777  0.34981107     0.36100
C4117       C  0.56825747  0.86937833  0.33220856     0.39500
C4118       C  0.54543038  0.80701167  0.31023088    -0.04000
C4119       C  0.54017355  0.79516020  0.29830091     0.03100
C4120       C  0.52363401  0.79556255  0.29185113    -0.03600
C4121       C  0.51276541  0.80850856  0.29724001     0.00100
C4122       C  0.51822833  0.82045073  0.30899122    -0.02400
C4123       C  0.56209825  0.80605422  0.31727275     0.36800
C4124       C  0.49601043  0.80997808  0.29050415     0.40400
C4125       C  0.55188331  0.78241979  0.29305949     0.39600
C4126       C  0.50710891  0.83368925  0.31431234     0.36500
C4127       C  0.55614229  0.84729112  0.30717461     0.37200
C4128       C  0.53651443  0.83751457  0.37511636     0.40400
N4129       N  0.56135436  0.77239750  0.28883839    -0.37600
N4130       N  0.57536948  0.80532729  0.32292838    -0.39200
N4131       N  0.48261669  0.81118164  0.28522370    -0.37000
N4132       N  0.49828407  0.84424652  0.31861857    -0.39400
N4133       N  0.51487817  0.80530876  0.35325877    -0.39100
N4134       N  0.53323451  0.83409879  0.38877931    -0.36800
N4135       N  0.57749154  0.87992448  0.32858788    -0.37800
N4136       N  0.56028193  0.84908703  0.29343481    -0.39500
C4137       C  0.56826966  0.77079031  0.18758371    -0.04400
C4138       C  0.56361955  0.78482186  0.17804014     0.09700
C4139       C  0.54845953  0.79304449  0.18147037    -0.01800
C4140       C  0.53802189  0.78731465  0.19449093    -0.00100
C4141       C  0.54239244  0.77293109  0.20373608    -0.03700
C4142       C  0.55759193  0.76470809  0.20024909     0.03300
C4143       C  0.57495129  0.79119823  0.16460880     0.10200
C4144       C  0.54367177  0.80745204  0.17160777     0.36100
C4145       C  0.56206011  0.74973349  0.20938679     0.39500
C4146       C  0.57395083  0.78465599  0.14832124    -0.04000
C4147       C  0.58473295  0.79062182  0.13567371     0.03100
C4148       C  0.59698316  0.80279177  0.13940740    -0.03600
C4149       C  0.59754768  0.80970907  0.15567626     0.00100
C4150       C  0.58665900  0.80382043  0.16822441    -0.02400
C4151       C  0.56176156  0.77176729  0.14462517     0.36800
C4152       C  0.60962666  0.82261661  0.15973286     0.40400
C4153       C  0.58241317  0.78493316  0.11868304     0.39600
C4154       C  0.58766504  0.81053285  0.18500181     0.36500
C4155       C  0.58413230  0.76271330  0.18437980     0.37200
C4156       C  0.52328089  0.79678188  0.19897320     0.40400
N4157       N  0.58010806  0.78035507  0.10519187    -0.37600
N4158       N  0.55205768  0.76144808  0.14173346    -0.39200
N4159       N  0.61922343  0.83293339  0.16297450    -0.37000
N4160       N  0.58847759  0.81584175  0.19839853    -0.39400
N4161       N  0.53984707  0.81890555  0.16368444    -0.39100
N4162       N  0.51170291  0.80453672  0.20270167    -0.36800
N4163       N  0.56558069  0.73776011  0.21665479    -0.37800
N4164       N  0.59684516  0.75638581  0.18181503    -0.39500
C4165       C  0.44986163  0.70897229  0.31470385    -0.04400
C4166       C  0.43388890  0.71634092  0.31505253     0.09700
C4167       C  0.42998932  0.72913829  0.30361634    -0.01800
C4168       C  0.44208203  0.73473433  0.29203267    -0.00100
C4169       C  0.45833543  0.72779022  0.29200942    -0.03700
C4170       C  0.46203838  0.71461910  0.30322862     0.03300
C4171       C  0.42104002  0.71035666  0.32730347     0.10200
C4172       C  0.41343543  0.73646130  0.30373504     0.36100
C4173       C  0.47841730  0.70691950  0.30317862     0.39500
C4174       C  0.42200422  0.71516197  0.34419653    -0.04000
C4175       C  0.41026111  0.70904285  0.35587224     0.03100
C4176       C  0.39688652  0.69878707  0.35057410    -0.03600
C4177       C  0.39619443  0.69368434  0.33365870     0.00100
C4178       C  0.40823798  0.69943704  0.32211139    -0.02400
C4179       C  0.43525366  0.72629669  0.34958363     0.36800
C4180       C  0.38303676  0.68256974  0.32800903     0.40400
C4181       C  0.41295765  0.71217675  0.37345867     0.39600
C4182       C  0.40756636  0.69404298  0.30484651     0.36500
C4183       C  0.45372094  0.69550956  0.32619495     0.37200
C4184       C  0.43741056  0.74695021  0.27950981     0.40400
N4185       N  0.41579792  0.71460951  0.38740001    -0.37600
N4186       N  0.44582980  0.73516988  0.35387037    -0.39200
N4187       N  0.37256913  0.67369002  0.32347477    -0.37000
N4188       N  0.40707301  0.68978458  0.29106128    -0.39400
N4189       N  0.40019865  0.74221834  0.30383254    -0.39100
N4190       N  0.43355543  0.75651878  0.26939950    -0.36800
N4191       N  0.49142732  0.70066763  0.30307733    -0.37800
N4192       N  0.45675943  0.68480602  0.33541097    -0.39500
C4193       C  0.46177189  0.68199463  0.20212263    -0.04400
C4194       C  0.46930830  0.67992384  0.18633642     0.09700
C4195       C  0.48329690  0.68973032  0.18189484    -0.01800
C4196       C  0.48953326  0.70182078  0.19305918    -0.00100
C4197       C  0.48168128  0.70429031  0.20867920    -0.03700
C4198       C  0.46793691  0.69411380  0.21328182     0.03300
C4199       C  0.46236125  0.66753836  0.17424096     0.10200
C4200       C  0.49126468  0.68728405  0.16580970     0.36100
C4201       C  0.45982128  0.69638308  0.22933271     0.39500
C4202       C  0.45154526  0.67286703  0.16143593    -0.04000
C4203       C  0.44520264  0.66129540  0.14982137     0.03100
C4204       C  0.44992156  0.64430947  0.15073574    -0.03600
C4205       C  0.45998685  0.63887319  0.16416166     0.00100
C4206       C  0.46643257  0.65050441  0.17568493    -0.02400
C4207       C  0.44712034  0.69035092  0.16011728     0.36800
C4208       C  0.46281085  0.62124787  0.16690167     0.40400
C4209       C  0.43411839  0.66702535  0.13669526     0.39600
C4210       C  0.47732730  0.64499327  0.18904474     0.36500
C4211       C  0.44753608  0.67173957  0.20677927     0.37200
C4212       C  0.50444974  0.71122263  0.18875465     0.40400
N4213       N  0.42529468  0.67159637  0.12621800    -0.37600
N4214       N  0.44365229  0.70431034  0.15904008    -0.39200
N4215       N  0.46497545  0.60724529  0.16962574    -0.37000
N4216       N  0.48602845  0.64064232  0.19971401    -0.39400
N4217       N  0.49753138  0.68527920  0.15294344    -0.39100
N4218       N  0.51643288  0.71862222  0.18538737    -0.36800
N4219       N  0.45338958  0.69817866  0.24215334    -0.37800
N4220       N  0.43621250  0.66351225  0.21048862    -0.39500
C4221       C  0.56293467  0.68413658  0.26780691    -0.04400
C4222       C  0.56992921  0.68612508  0.28382404     0.09700
C4223       C  0.56604169  0.70033374  0.29341555    -0.01800
C4224       C  0.55479500  0.71231469  0.28718120    -0.00100
C4225       C  0.54740710  0.71006435  0.27135663    -0.03700
C4226       C  0.55164875  0.69605818  0.26159396     0.03300
C4227       C  0.58104642  0.67292536  0.29073970     0.10200
C4228       C  0.57344603  0.70245272  0.30978785     0.36100
C4229       C  0.54452359  0.69402557  0.24506949     0.39500
C4230       C  0.59848726  0.67415604  0.28874772    -0.04000
C4231       C  0.60892004  0.66131478  0.29466676     0.03100
C4232       C  0.60192021  0.64710975  0.30252139    -0.03600
C4233       C  0.58448414  0.64644872  0.30543424     0.00100
C4234       C  0.57405851  0.65912705  0.29919099    -0.02400
C4235       C  0.60565722  0.68875807  0.28071739     0.36800
C4236       C  0.57718877  0.63270731  0.31478564     0.40400
C4237       C  0.62687077  0.66340324  0.29371240     0.39600
C4238       C  0.55608474  0.65793684  0.30127705     0.36500
C4239       C  0.56733520  0.66974160  0.25780147     0.37200
C4240       C  0.55028497  0.72658053  0.29731729     0.40400
N4241       N  0.64114800  0.66558516  0.29306811    -0.37600
N4242       N  0.61133703  0.70045965  0.27437375    -0.39200
N4243       N  0.57134330  0.62177404  0.32226166    -0.37000
N4244       N  0.54173869  0.65699045  0.30283750    -0.39400
N4245       N  0.57938696  0.70414088  0.32283962    -0.39100
N4246       N  0.54661890  0.73792921  0.30541621    -0.36800
N4247       N  0.53884481  0.69245575  0.23188458    -0.37800
N4248       N  0.57091880  0.65824527  0.24987704    -0.39500
C4249       C  0.07708347  0.04763935  0.95569026    -0.04400
C4250       C  0.07721212  0.06472790  0.95988236     0.09700
C4251       C  0.06444286  0.07116592  0.97019238    -0.01800
C4252       C  0.05161089  0.06057690  0.97621845    -0.00100
C4253       C  0.05152552  0.04344905  0.97205129    -0.03700
C4254       C  0.06453406  0.03698300  0.96207515     0.03300
C4255       C  0.09115642  0.07580658  0.95390709     0.10200
C4256       C  0.06460547  0.08869112  0.97465254     0.36100
C4257       C  0.06574785  0.01915354  0.95943756     0.39500
C4258       C  0.08851702  0.08721462  0.94073936    -0.04000
C4259       C  0.10151301  0.09799582  0.93552551     0.03100
C4260       C  0.11735180  0.09734669  0.94337262    -0.03600
C4261       C  0.12033699  0.08489643  0.95551003     0.00100
C4262       C  0.10717330  0.07456645  0.96114416    -0.02400
C4263       C  0.07239563  0.08779967  0.93252791     0.36800
C4264       C  0.13716651  0.08167622  0.96124623     0.40400
C4265       C  0.09840631  0.10996342  0.92227747     0.39600
C4266       C  0.11012114  0.06256436  0.97439290     0.36500
C4267       C  0.08995026  0.04102584  0.94481393     0.37200
C4268       C  0.03848801  0.06731534  0.98670104     0.40400
N4269       N  0.09593358  0.11947418  0.91167805    -0.37600
N4270       N  0.05953775  0.08823243  0.92596299    -0.39200
N4271       N  0.15051152  0.07845962  0.96571040    -0.37000
N4272       N  0.11246212  0.05295018  0.98492601    -0.39400
N4273       N  0.06477215  0.10269476  0.97811450    -0.39100
N4274       N  0.02804377  0.07268461  0.99510423    -0.36800
N4275       N  0.06702033  0.00489924  0.95767554    -0.37800
N4276       N  0.10023124  0.03581648  0.93611661    -0.39500
C4277       C  0.96628164  0.06965513  0.04585708    -0.04400
C4278       C  0.97690277  0.07479786  0.05888467     0.09700
C4279       C  0.99287297  0.06767579  0.06040407    -0.01800
C4280       C  0.99784747  0.05468169  0.04958283    -0.00100
C4281       C  0.98701778  0.04904263  0.03664681    -0.03700
C4282       C  0.97130092  0.05700904  0.03470097     0.03300
C4283       C  0.97052593  0.08673873  0.07176504     0.10200
C4284       C  0.00414544  0.07372362  0.07322750     0.36100
C4285       C  0.96025168  0.05257732  0.02105905     0.39500
C4286       C  0.96048421  0.08066671  0.08493535    -0.04000
C4287       C  0.95259242  0.09183502  0.09596264     0.03100
C4288       C  0.95548398  0.10920647  0.09454392    -0.03600
C4289       C  0.96558304  0.11527273  0.08133332     0.00100
C4290       C  0.97315103  0.10405876  0.07004714    -0.02400
C4291       C  0.95834739  0.06281769  0.08712122     0.36800
C4292       C  0.96710287  0.13305044  0.07843198     0.40400
C4293       C  0.94147022  0.08535296  0.10876779     0.39600
C4294       C  0.98341108  0.11032563  0.05646462     0.36500
C4295       C  0.95004960  0.07745931  0.04402287     0.37200
C4296       C  0.01388911  0.04678013  0.05238294     0.40400
N4297       N  0.93260726  0.08013781  0.11896396    -0.37600
N4298       N  0.95681275  0.04856355  0.08886163    -0.39200
N4299       N  0.96822945  0.14717874  0.07566746    -0.37000
N4300       N  0.99163327  0.11535261  0.04565884    -0.39400
N4301       N  0.01317263  0.07868350  0.08335247    -0.39100
N4302       N  0.02668109  0.04049638  0.05467973    -0.36800
N4303       N  0.95135588  0.04911224  0.01022185    -0.37800
N4304       N  0.93713890  0.08376126  0.04266371    -0.39500
C4305       C  0.06082519  0.95725591  0.05472447    -0.04400
C4306       C  0.07316079  0.96794459  0.06119732     0.09700
C4307       C  0.07393320  0.98465428  0.05586171    -0.01800
C4308       C  0.06227158  0.99080333  0.04415918    -0.00100
C4309       C  0.04959547  0.98016268  0.03755193    -0.03700
C4310       C  0.04917353  0.96319187  0.04293098     0.03300
C4311       C  0.08504912  0.96162903  0.07411848     0.10200
C4312       C  0.08684149  0.99553086  0.06249820     0.36100
C4313       C  0.03677210  0.95157061  0.03663870     0.39500
C4314       C  0.09951204  0.95284041  0.06934837    -0.04000
C4315       C  0.11050302  0.94662813  0.08161848     0.03100
C4316       C  0.10725643  0.94952650  0.09874489    -0.03600
C4317       C  0.09215602  0.95728394  0.10345107     0.00100
C4318       C  0.08133294  0.96371887  0.09118583    -0.02400
C4319       C  0.10318007  0.95044265  0.05178149     0.36800
C4320       C  0.08697770  0.95742019  0.12078244     0.40400
C4321       C  0.12528129  0.93750757  0.07655231     0.39600
C4322       C  0.06629510  0.97249769  0.09608852     0.36500
C4323       C  0.06005458  0.94006618  0.06045000     0.37200
C4324       C  0.06377466  0.00806820  0.03885222     0.40400
N4325       N  0.13707846  0.93024659  0.07250961    -0.37600
N4326       N  0.10610825  0.94855943  0.03775970    -0.39200
N4327       N  0.08227639  0.95726519  0.13444872    -0.37000
N4328       N  0.05433816  0.97959593  0.09993945    -0.39400
N4329       N  0.09714782  0.00416088  0.06780853    -0.39100
N4330       N  0.06501846  0.02186448  0.03472678    -0.36800
N4331       N  0.02709413  0.94208637  0.03160831    -0.37800
N4332       N  0.05949609  0.92638990  0.06507427    -0.39500
C4333       C  0.93562657  0.94449086  0.01552126    -0.04400
C4334       C  0.93963889  0.93421082  0.02928258     0.09700
C4335       C  0.95530107  0.93615872  0.03714339    -0.01800
C4336       C  0.96678136  0.94836519  0.03142105    -0.00100
C4337       C  0.96287385  0.95858283  0.01754128    -0.03700
C4338       C  0.94718972  0.95655690  0.00962504     0.03300
C4339       C  0.92716008  0.92166525  0.03583356     0.10200
C4340       C  0.95951115  0.92567731  0.05129538     0.36100
C4341       C  0.94307424  0.96659980  0.99512241     0.39500
C4342       C  0.92851901  0.90462058  0.03167441    -0.04000
C4343       C  0.91688831  0.89284925  0.03802404     0.03100
C4344       C  0.90334072  0.89808309  0.04807521    -0.03600
C4345       C  0.90245071  0.91509625  0.05279820     0.00100
C4346       C  0.91421049  0.92679174  0.04661557    -0.02400
C4347       C  0.94202123  0.89919402  0.02091672     0.36800
C4348       C  0.88926861  0.92072098  0.06386824     0.40400
C4349       C  0.91976083  0.87524471  0.03531319     0.39600
C4350       C  0.91303780  0.94418786  0.05138086     0.36500
C4351       C  0.91955712  0.94256041  0.00740238     0.37200
C4352       C  0.98225101  0.95100704  0.04043192     0.40400
N4353       N  0.92255473  0.86124448  0.03331556    -0.37600
N4354       N  0.95281094  0.89489246  0.01233227    -0.39200
N4355       N  0.87875460  0.92522146  0.07269058    -0.37000
N4356       N  0.91212954  0.95807712  0.05515182    -0.39400
N4357       N  0.96286972  0.91725090  0.06254347    -0.39100
N4358       N  0.99446806  0.95324261  0.04780356    -0.36800
N4359       N  0.93979903  0.97459859  0.98353873    -0.37800
N4360       N  0.90669939  0.94098845  0.00100169    -0.39500
C4361       C  0.90717729  0.03615691  0.91811704    -0.04400
C4362       C  0.92448680  0.03920267  0.91654886     0.09700
C4363       C  0.93052510  0.04817601  0.90260082    -0.01800
C4364       C  0.91937707  0.05401962  0.89029666    -0.00100
C4365       C  0.90208305  0.05038484  0.89145432    -0.03700
C4366       C  0.89600790  0.04178827  0.90567517     0.03300
C4367       C  0.93640849  0.03347723  0.92982074     0.10200
C4368       C  0.94829608  0.05142617  0.90095361     0.36100
C4369       C  0.87820112  0.03989516  0.90830826     0.39500
C4370       C  0.94103604  0.01652125  0.93091650    -0.04000
C4371       C  0.95288825  0.01134397  0.94288428     0.03100
C4372       C  0.96055362  0.02315567  0.95346552    -0.03600
C4373       C  0.95577458  0.04004148  0.95255873     0.00100
C4374       C  0.94356872  0.04515086  0.94093503    -0.02400
C4375       C  0.93381988  0.00447570  0.91950663     0.36800
C4376       C  0.96367328  0.05219810  0.96338434     0.40400
C4377       C  0.95710563  0.99382812  0.94445513     0.39600
C4378       C  0.93839467  0.06245513  0.94032717     0.36500
C4379       C  0.90082766  0.02763298  0.93282294     0.37200
C4380       C  0.92580570  0.06382763  0.87643712     0.40400
N4381       N  0.96040586  0.97985105  0.94583153    -0.37600
N4382       N  0.92804630  0.99489900  0.91037798    -0.39200
N4383       N  0.97005068  0.06188403  0.97198186    -0.37000
N4384       N  0.93423407  0.07625289  0.93980271    -0.39400
N4385       N  0.96247107  0.05404002  0.89972991    -0.39100
N4386       N  0.93096033  0.07167726  0.86541758    -0.36800
N4387       N  0.86404990  0.03849001  0.91092649    -0.37800
N4388       N  0.89577274  0.02084408  0.94456661    -0.39500
C4389       C  0.02566500  0.93061151  0.93919149    -0.04400
C4390       C  0.03607194  0.93543817  0.92580519     0.09700
C4391       C  0.04091420  0.95228393  0.92414624    -0.01800
C4392       C  0.03534123  0.96429395  0.93575835    -0.00100
C4393       C  0.02526812  0.95945917  0.94960072    -0.03700
C4394       C  0.02034174  0.94247177  0.95105817     0.03300
C4395       C  0.04157143  0.92280518  0.91315609     0.10200
C4396       C  0.05169748  0.95723592  0.91039047     0.36100
C4397       C  0.00909397  0.93717130  0.96429000     0.39500
C4398       C  0.03432650  0.92259729  0.89711287    -0.04000
C4399       C  0.03976892  0.91102523  0.88503194     0.03100
C4400       C  0.05166550  0.89871280  0.88926502    -0.03600
C4401       C  0.05891454  0.89897607  0.90542156     0.00100
C4402       C  0.05410414  0.91115402  0.91715604    -0.02400
C4403       C  0.02127549  0.93443165  0.89303816     0.36800
C4404       C  0.07107999  0.88647234  0.91022837     0.40400
C4405       C  0.03393884  0.91275715  0.86801540     0.39600
C4406       C  0.06215376  0.91180059  0.93336060     0.36500
C4407       C  0.02016239  0.91339242  0.94053335     0.37200
C4408       C  0.03999165  0.98160101  0.93315192     0.40400
N4409       N  0.02922808  0.91476499  0.85451290    -0.37600
N4410       N  0.01087841  0.94391371  0.88987580    -0.39200
N4411       N  0.08074931  0.87648467  0.91408428    -0.37000
N4412       N  0.06861607  0.91234370  0.94626322    -0.39400
N4413       N  0.06024951  0.96112708  0.89937505    -0.39100
N4414       N  0.04355671  0.99538041  0.93064523    -0.36800
N4415       N  0.00010048  0.93293535  0.97481909    -0.37800
N4416       N  0.01580881  0.89964908  0.94154076    -0.39500
C4417       C  0.96370302  0.54412021  0.57251766    -0.04400
C4418       C  0.96790757  0.56122007  0.57156988     0.09700
C4419       C  0.97848855  0.56694453  0.55861543    -0.01800
C4420       C  0.98442439  0.55574484  0.54642276    -0.00100
C4421       C  0.98013923  0.53864473  0.54731680    -0.03700
C4422       C  0.97001054  0.53283902  0.56060263     0.03300
C4423       C  0.96056748  0.57337923  0.58372104     0.10200
C4424       C  0.98303372  0.58446319  0.55771119     0.36100
C4425       C  0.96647767  0.51514919  0.56231463     0.39500
C4426       C  0.96595965  0.57372880  0.60048867    -0.04000
C4427       C  0.95895944  0.58524584  0.61180815     0.03100
C4428       C  0.94714443  0.59709632  0.60624151    -0.03600
C4429       C  0.94129635  0.59625606  0.58960305     0.00100
C4430       C  0.94791602  0.58440828  0.57845031    -0.02400
C4431       C  0.97858152  0.56206750  0.60614645     0.36800
C4432       C  0.92849135  0.60765216  0.58384048     0.40400
C4433       C  0.96292567  0.58381146  0.62938386     0.39600
C4434       C  0.94160640  0.58343985  0.56150597     0.36500
C4435       C  0.95263870  0.53816750  0.58561329     0.37200
C4436       C  0.99431838  0.56199023  0.53254957     0.40400
N4437       N  0.96606219  0.58193679  0.64335779    -0.37600
N4438       N  0.98857017  0.55269835  0.61068441    -0.39200
N4439       N  0.91827463  0.61673775  0.57923851    -0.37000
N4440       N  0.93662578  0.58262297  0.54797654    -0.39400
N4441       N  0.98654606  0.59846005  0.55699386    -0.39100
N4442       N  0.00208398  0.56703749  0.52142207    -0.36800
N4443       N  0.96377900  0.50102270  0.56369402    -0.37800
N4444       N  0.94383727  0.53341570  0.59608205    -0.39500
C4445       C  0.06899660  0.47406822  0.56285707    -0.04400
C4446       C  0.06253961  0.46405139  0.57588797     0.09700
C4447       C  0.04531112  0.46030955  0.57646927    -0.01800
C4448       C  0.03458162  0.46669187  0.56411479    -0.00100
C4449       C  0.04122069  0.47576490  0.55050028    -0.03700
C4450       C  0.05844708  0.47951860  0.54993519     0.03300
C4451       C  0.07405557  0.45739664  0.58888370     0.10200
C4452       C  0.03865911  0.44986002  0.58973644     0.36100
C4453       C  0.06539067  0.48865397  0.53586598     0.39500
C4454       C  0.07390351  0.46403646  0.60516184    -0.04000
C4455       C  0.08537143  0.45824970  0.61713765     0.03100
C4456       C  0.09790314  0.44677874  0.61251807    -0.03600
C4457       C  0.09760501  0.43967067  0.59635225     0.00100
C4458       C  0.08550840  0.44475792  0.58470292    -0.02400
C4459       C  0.06201678  0.47693730  0.60953089     0.36800
C4460       C  0.11004992  0.42750684  0.59141783     0.40400
C4461       C  0.08339651  0.46325626  0.63438545     0.39600
C4462       C  0.08490670  0.43711252  0.56830396     0.36500
C4463       C  0.08650528  0.47882858  0.56284840     0.37200
C4464       C  0.01664849  0.46494454  0.56604079     0.40400
N4465       N  0.08117459  0.46718209  0.64809725    -0.37600
N4466       N  0.05249131  0.48719563  0.61297806    -0.39200
N4467       N  0.11998692  0.41784474  0.58743642    -0.37000
N4468       N  0.08438113  0.43102131  0.55523148    -0.39400
N4469       N  0.03337464  0.44152095  0.60032702    -0.39100
N4470       N  0.00234388  0.46394928  0.56790463    -0.36800
N4471       N  0.07091832  0.49586917  0.52459621    -0.37800
N4472       N  0.10046154  0.48263213  0.56295239    -0.39500
C4473       C  0.05300966  0.41818236  0.41518793    -0.04400
C4474       C  0.03954511  0.41512962  0.42617042     0.09700
C4475       C  0.03059603  0.40000218  0.42509583    -0.01800
C4476       C  0.03464232  0.38828670  0.41262464    -0.00100
C4477       C  0.04709326  0.39199214  0.40063806    -0.03700
C4478       C  0.05685404  0.40660684  0.40251983     0.03300
C4479       C  0.03452814  0.42811519  0.43855437     0.10200
C4480       C  0.01726529  0.39651337  0.43689080     0.36100
C4481       C  0.07062106  0.40991195  0.39117985     0.39500
C4482       C  0.02306628  0.44056531  0.43387780    -0.04000
C4483       C  0.01873310  0.45328352  0.44513938     0.03100
C4484       C  0.02533088  0.45333490  0.46154650    -0.03600
C4485       C  0.03701476  0.44089950  0.46616004     0.00100
C4486       C  0.04149075  0.42828809  0.45471992    -0.02400
C4487       C  0.01519760  0.44011492  0.41760002     0.36800
C4488       C  0.04501688  0.44143518  0.48239835     0.40400
C4489       C  0.00730637  0.46619590  0.43965382     0.39600
C4490       C  0.05306540  0.41530412  0.45964008     0.36500
C4491       C  0.06275929  0.43336186  0.41685050     0.37200
C4492       C  0.02658219  0.37212104  0.41267173     0.40400
N4493       N  0.99844367  0.47659516  0.43504060    -0.37600
N4494       N  0.00841990  0.44016804  0.40486108    -0.39200
N4495       N  0.05147607  0.44193389  0.49530845    -0.37000
N4496       N  0.06221258  0.40488317  0.46361411    -0.39400
N4497       N  0.00664684  0.39375490  0.44633316    -0.39100
N4498       N  0.02035420  0.35910575  0.41319909    -0.36800
N4499       N  0.08165957  0.41250607  0.38218418    -0.37800
N4500       N  0.07052031  0.44547641  0.41826066    -0.39500
C4501       C  0.06814177  0.54559871  0.46026254    -0.04400
C4502       C  0.07303174  0.55963503  0.46962916     0.09700
C4503       C  0.06572947  0.56251604  0.48535994    -0.01800
C4504       C  0.05325922  0.55165180  0.49159608    -0.00100
C4505       C  0.04804196  0.53757689  0.48215441    -0.03700
C4506       C  0.05596513  0.53444993  0.46657423     0.03300
C4507       C  0.08597555  0.57143981  0.46295206     0.10200
C4508       C  0.07105288  0.57683775  0.49507443     0.36100
C4509       C  0.05228362  0.51936882  0.45726442     0.39500
C4510       C  0.08146084  0.58387210  0.45135532    -0.04000
C4511       C  0.09361208  0.59502555  0.44508067     0.03100
C4512       C  0.11039961  0.59401894  0.45056821    -0.03600
C4513       C  0.11493532  0.58130591  0.46195121     0.00100
C4514       C  0.10272308  0.57017659  0.46822674    -0.02400
C4515       C  0.06422982  0.58520778  0.44594976     0.36800
C4516       C  0.13226345  0.57879060  0.46641715     0.40400
C4517       C  0.08872103  0.60768139  0.43307168     0.39600
C4518       C  0.10738914  0.55720097  0.47996943     0.36500
C4519       C  0.07572409  0.54263433  0.44407084     0.37200
C4520       C  0.04578348  0.55527625  0.50768269     0.40400
N4521       N  0.08482278  0.61781027  0.42353606    -0.37600
N4522       N  0.05048030  0.58624491  0.44164452    -0.39200
N4523       N  0.14598050  0.57618455  0.47008750    -0.37000
N4524       N  0.11105531  0.54685480  0.48936097    -0.39400
N4525       N  0.07542154  0.58824782  0.50275556    -0.39100
N4526       N  0.04001511  0.55820926  0.52059883    -0.36800
N4527       N  0.04945876  0.50730525  0.44986541    -0.37800
N4528       N  0.08170595  0.54033670  0.43111846    -0.39500
C4529       C  0.94236518  0.54078173  0.44897821    -0.04400
C4530       C  0.93735433  0.53048073  0.43560774     0.09700
C4531       C  0.94326986  0.51396331  0.43466947    -0.01800
C4532       C  0.95414664  0.50775074  0.44702990    -0.00100
C4533       C  0.95951625  0.51815859  0.46018362    -0.03700
C4534       C  0.95350789  0.53466939  0.46118844     0.03300
C4535       C  0.92547151  0.53680032  0.42265583     0.10200
C4536       C  0.93800203  0.50335580  0.42099141     0.36100
C4537       C  0.95897625  0.54541933  0.47467230     0.39500
C4538       C  0.93151005  0.54538817  0.40849962    -0.04000
C4539       C  0.92031429  0.55101586  0.39613937     0.03100
C4540       C  0.90304133  0.54724609  0.39735885    -0.03600
C4541       C  0.89700277  0.53896411  0.41178350     0.00100
C4542       C  0.90818936  0.53383793  0.42439541    -0.02400
C4543       C  0.94931919  0.54814562  0.40652077     0.36800
C4544       C  0.87923920  0.53659960  0.41431602     0.40400
C4545       C  0.92667562  0.56058835  0.38208282     0.39600
C4546       C  0.90195735  0.52562466  0.43933042     0.36500
C4547       C  0.93592623  0.55761255  0.45020935     0.37200
C4548       C  0.95910906  0.49038753  0.44668312     0.40400
N4549       N  0.93171907  0.56825189  0.37088170    -0.37600
N4550       N  0.96353533  0.55024468  0.40486881    -0.39200
N4551       N  0.86513782  0.53469541  0.41689442    -0.37000
N4552       N  0.89707177  0.51912818  0.45130714    -0.39400
N4553       N  0.93373411  0.49499902  0.41002821    -0.39100
N4554       N  0.96276436  0.47644152  0.44650690    -0.36800
N4555       N  0.96337515  0.55396008  0.48544256    -0.37800
N4556       N  0.93073352  0.57102381  0.45122253    -0.39500
C4557       C  0.93040138  0.43780216  0.51951294    -0.04400
C4558       C  0.93442404  0.42628009  0.53221408     0.09700
C4559       C  0.95055883  0.42646018  0.53921975    -0.01800
C4560       C  0.96253983  0.43824933  0.53377321    -0.00100
C4561       C  0.95823284  0.45060383  0.52181244    -0.03700
C4562       C  0.94214296  0.45004578  0.51446575     0.03300
C4563       C  0.92151248  0.41419222  0.53855149     0.10200
C4564       C  0.95475477  0.41457389  0.55224024     0.36100
C4565       C  0.93788013  0.46153734  0.50112964     0.39500
C4566       C  0.92156262  0.39742866  0.53327257    -0.04000
C4567       C  0.90969823  0.38598296  0.53970853     0.03100
C4568       C  0.89706978  0.39141993  0.55082337    -0.03600
C4569       C  0.89730548  0.40822367  0.55631588     0.00100
C4570       C  0.90955665  0.41945337  0.55033061    -0.02400
C4571       C  0.93402649  0.39194037  0.52134182     0.36800
C4572       C  0.88473767  0.41417461  0.56791535     0.40400
C4573       C  0.91147037  0.36845874  0.53581582     0.39600
C4574       C  0.91004842  0.43645734  0.55646127     0.36500
C4575       C  0.91419743  0.43683115  0.51149169     0.37200
C4576       C  0.97931319  0.43742529  0.54051555     0.40400
N4577       N  0.91355435  0.35454510  0.53267707    -0.37600
N4578       N  0.94399176  0.38760313  0.51182856    -0.39200
N4579       N  0.87470433  0.41896102  0.57713472    -0.37000
N4580       N  0.91055108  0.45000684  0.56137671    -0.39400
N4581       N  0.95807563  0.40510865  0.56264079    -0.39100
N4582       N  0.99274900  0.43633757  0.54569219    -0.36800
N4583       N  0.93450905  0.47065565  0.49043588    -0.37800
N4584       N  0.90128710  0.43589931  0.50507548    -0.39500
C4585       C  0.56338134  0.97484507  0.56494431    -0.04400
C4586       C  0.55785802  0.96188477  0.57555262     0.09700
C4587       C  0.54166604  0.95521681  0.57351797    -0.01800
C4588       C  0.53120420  0.96115518  0.56061423    -0.00100
C4589       C  0.53679793  0.97405277  0.54979426    -0.03700
C4590       C  0.55285174  0.98107545  0.55228816     0.03300
C4591       C  0.56951962  0.95487315  0.58839066     0.10200
C4592       C  0.53585165  0.94214282  0.58466483     0.36100
C4593       C  0.55834328  0.99520657  0.54230849     0.39500
C4594       C  0.57009949  0.96157229  0.60463153    -0.04000
C4595       C  0.58207702  0.95581667  0.61623537     0.03100
C4596       C  0.59422023  0.94396655  0.61137909    -0.03600
C4597       C  0.59293677  0.93662197  0.59530166     0.00100
C4598       C  0.58055797  0.94197614  0.58397800    -0.02400
C4599       C  0.55834765  0.97445650  0.60935086     0.36800
C4600       C  0.60466879  0.92392360  0.59002223     0.40400
C4601       C  0.58107129  0.96136730  0.63339016     0.39600
C4602       C  0.57926130  0.93438356  0.56759836     0.36500
C4603       C  0.58002692  0.98171028  0.56705027     0.37200
C4604       C  0.51489115  0.95359036  0.55821335     0.40400
N4605       N  0.57970401  0.96581213  0.64705337    -0.37600
N4606       N  0.54897331  0.98475151  0.61308939    -0.39200
N4607       N  0.61393361  0.91374220  0.58573196    -0.37000
N4608       N  0.57809794  0.92832419  0.55455203    -0.39400
N4609       N  0.53119086  0.93175552  0.59360363    -0.39100
N4610       N  0.50188242  0.94755434  0.55629466    -0.36800
N4611       N  0.56265860  0.00654523  0.53441571    -0.37800
N4612       N  0.59333864  0.98710228  0.56872963    -0.39500
C4613       C  0.57451899  0.08593140  0.45162018    -0.04400
C4614       C  0.58102150  0.07301337  0.46165318     0.09700
C4615       C  0.59833998  0.07240156  0.46483046    -0.01800
C4616       C  0.60904077  0.08490194  0.45840084    -0.00100
C4617       C  0.60241295  0.09839628  0.44917429    -0.03700
C4618       C  0.58515769  0.09846260  0.44525571     0.03300
C4619       C  0.56947615  0.06015902  0.46892152     0.10200
C4620       C  0.60512568  0.05887135  0.47474686     0.36100
C4621       C  0.57811249  0.11176430  0.43517582     0.39500
C4622       C  0.56226677  0.04786064  0.45856922    -0.04000
C4623       C  0.55005751  0.03687276  0.46503624     0.03100
C4624       C  0.54540703  0.03776305  0.48202302    -0.03600
C4625       C  0.55316519  0.04952927  0.49255074     0.00100
C4626       C  0.56502165  0.06084066  0.48598047    -0.02400
C4627       C  0.56732169  0.04666283  0.44121044     0.36800
C4628       C  0.54901536  0.04989098  0.51017640     0.40400
C4629       C  0.54181774  0.02508025  0.45405821     0.39600
C4630       C  0.57245627  0.07337679  0.49669433     0.36500
C4631       C  0.55673779  0.08654145  0.44816857     0.37200
C4632       C  0.62692934  0.08322791  0.46046830     0.40400
N4633       N  0.53515975  0.01579984  0.44522769    -0.37600
N4634       N  0.57138854  0.04574033  0.42737140    -0.39200
N4635       N  0.54579671  0.05007537  0.52426527    -0.37000
N4636       N  0.57846385  0.08335596  0.50521590    -0.39400
N4637       N  0.61050920  0.04812788  0.48274969    -0.39100
N4638       N  0.64117274  0.08142807  0.46205221    -0.36800
N4639       N  0.57247540  0.12236547  0.42715487    -0.37800
N4640       N  0.54256754  0.08698786  0.44537870    -0.39500
C4641       C  0.48023542  0.06888012  0.56048852    -0.04400
C4642       C  0.46683416  0.06454566  0.57110839     0.09700
C4643       C  0.45963310  0.04853659  0.57006227    -0.01800
C4644       C  0.46585765  0.03685149  0.55853881    -0.00100
C4645       C  0.47849045  0.04152119  0.54693315    -0.03700
C4646       C  0.48569467  0.05765964  0.54808247     0.03300
C4647       C  0.46001312  0.07702030  0.58315307     0.10200
C4648       C  0.44562967  0.04413995  0.58077147     0.36100
C4649       C  0.49910222  0.06265792  0.53692499     0.39500
C4650       C  0.45024522  0.09040131  0.57723948    -0.04000
C4651       C  0.44393758  0.10231861  0.58847782     0.03100
C4652       C  0.44749937  0.10100249  0.60571630    -0.03600
C4653       C  0.45617158  0.08690937  0.61172699     0.00100
C4654       C  0.46281568  0.07520447  0.60045220    -0.02400
C4655       C  0.44671865  0.09188975  0.55953391     0.36800
C4656       C  0.45709628  0.08364793  0.62950050     0.40400
C4657       C  0.43394921  0.11603550  0.58221290     0.39600
C4658       C  0.47251884  0.06125392  0.60664863     0.36500
C4659       C  0.48857498  0.08483506  0.56260810     0.37200
C4660       C  0.45922507  0.01999971  0.55894959     0.40400
N4661       N  0.42601441  0.12699171  0.57719783    -0.37600
N4662       N  0.44398081  0.09306059  0.54539711    -0.39200
N4663       N  0.45758435  0.08050806  0.64359870    -0.37000
N4664       N  0.48020564  0.05009374  0.61159782    -0.39400
N4665       N  0.43446407  0.04063799  0.58929679    -0.39100
N4666       N  0.45416036  0.00649199  0.55977064    -0.36800
N4667       N  0.50973129  0.06678950  0.52800356    -0.37800
N4668       N  0.49523583  0.09752185  0.56449016    -0.39500
C4669       C  0.42837488  0.05152900  0.40828897    -0.04400
C4670       C  0.42250593  0.04180922  0.42178659     0.09700
C4671       C  0.40525532  0.03856757  0.42338535    -0.01800
C4672       C  0.39395634  0.04469227  0.41133957    -0.00100
C4673       C  0.39989820  0.05360452  0.39727090    -0.03700
C4674       C  0.41711253  0.05759460  0.39619018     0.03300
C4675       C  0.43453516  0.03524107  0.43450336     0.10200
C4676       C  0.39915033  0.02898693  0.43753028     0.36100
C4677       C  0.42333537  0.06784017  0.38256132     0.39500
C4678       C  0.43775078  0.04431507  0.44920211    -0.04000
C4679       C  0.44930810  0.03829446  0.46108513     0.03100
C4680       C  0.45778874  0.02299872  0.45837451    -0.03600
C4681       C  0.45455940  0.01403892  0.44341400     0.00100
C4682       C  0.44289576  0.02008663  0.43167402    -0.02400
C4683       C  0.42895748  0.05983267  0.45212618     0.36800
C4684       C  0.46358458  0.99882654  0.43966812     0.40400
C4685       C  0.45204888  0.04777968  0.47624298     0.39600
C4686       C  0.43938028  0.01067680  0.41661618     0.36500
C4687       C  0.44607500  0.05518677  0.40683983     0.37200
C4688       C  0.37617420  0.04295809  0.41423280     0.40400
N4689       N  0.45422745  0.05544249  0.48827637    -0.37600
N4690       N  0.42185582  0.07216551  0.45441429    -0.39200
N4691       N  0.47076739  0.98669599  0.43664953    -0.37000
N4692       N  0.43650484  0.00319443  0.40461770    -0.39400
N4693       N  0.39429531  0.02134589  0.44882567    -0.39100
N4694       N  0.36204753  0.04176511  0.41707874    -0.36800
N4695       N  0.42831054  0.07602977  0.37170836    -0.37800
N4696       N  0.46020865  0.05805428  0.40570743    -0.39500
C4697       C  0.43847915  0.93011876  0.52341752    -0.04400
C4698       C  0.42513362  0.93664618  0.53291228     0.09700
C4699       C  0.42441408  0.95396034  0.53598959    -0.01800
C4700       C  0.43680647  0.96465476  0.52940644    -0.00100
C4701       C  0.45071147  0.95799934  0.52086806    -0.03700
C4702       C  0.45152670  0.94067053  0.51792748     0.03300
C4703       C  0.41207883  0.92516126  0.53995730     0.10200
C4704       C  0.41107399  0.96074678  0.54616255     0.36100
C4705       C  0.46615655  0.93356422  0.51002093     0.39500
C4706       C  0.41613010  0.91429638  0.55321401    -0.04000
C4707       C  0.40427365  0.90264386  0.55913017     0.03100
C4708       C  0.38802738  0.90202185  0.55210485    -0.03600
C4709       C  0.38360164  0.91395579  0.53985868     0.00100
C4710       C  0.39574014  0.92503707  0.53338108    -0.02400
C4711       C  0.43263761  0.91501534  0.56065932     0.36800
C4712       C  0.36638584  0.91575796  0.53466960     0.40400
C4713       C  0.40911733  0.89094535  0.57209270     0.39600
C4714       C  0.39147456  0.93622763  0.51978775     0.36500
C4715       C  0.43874877  0.91250497  0.51933191     0.37200
C4716       C  0.43480170  0.98257464  0.53066289     0.40400
N4717       N  0.41302796  0.88165821  0.58244793    -0.37600
N4718       N  0.44581513  0.91559504  0.56655359    -0.39200
N4719       N  0.35271561  0.91783582  0.53051234    -0.37000
N4720       N  0.38811490  0.94517774  0.50895228    -0.39400
N4721       N  0.40046802  0.96616477  0.55432515    -0.39100
N4722       N  0.43296083  0.99686543  0.53128939    -0.36800
N4723       N  0.47792374  0.92779855  0.50396974    -0.37800
N4724       N  0.43884593  0.89846070  0.51604534    -0.39500
C4725       C  0.53627100  0.92466832  0.40452030    -0.04400
C4726       C  0.54032234  0.92234906  0.42147871     0.09700
C4727       C  0.55069441  0.90900366  0.42623619    -0.01800
C4728       C  0.55650771  0.89763803  0.41415928    -0.00100
C4729       C  0.55193749  0.89952379  0.39717594    -0.03700
C4730       C  0.54234301  0.91351369  0.39235392     0.03300
C4731       C  0.53364288  0.93402117  0.43438134     0.10200
C4732       C  0.55524184  0.90691411  0.44363884     0.36100
C4733       C  0.53965761  0.91725848  0.37487252     0.39500
C4734       C  0.51788119  0.93101376  0.44164303    -0.04000
C4735       C  0.51147486  0.94199357  0.45379939     0.03100
C4736       C  0.52094065  0.95604802  0.45898341    -0.03600
C4737       C  0.53679904  0.95900520  0.45153098     0.00100
C4738       C  0.54302957  0.94806736  0.43924917    -0.02400
C4739       C  0.50828741  0.91650474  0.43656170     0.36800
C4740       C  0.54665518  0.97352726  0.45605481     0.40400
C4741       C  0.49523845  0.93851168  0.46109488     0.39600
C4742       C  0.55908490  0.95132405  0.43143408     0.36500
C4743       C  0.52588079  0.93864527  0.39964096     0.37200
C4744       C  0.56685031  0.88374134  0.41936076     0.40400
N4745       N  0.48220684  0.93571708  0.46673283    -0.37600
N4746       N  0.50070526  0.90491134  0.43245846    -0.39200
N4747       N  0.55464765  0.98501298  0.45966925    -0.37000
N4748       N  0.57186559  0.95393158  0.42516172    -0.39400
N4749       N  0.55888854  0.90528944  0.45752227    -0.39100
N4750       N  0.57502057  0.87260064  0.42351002    -0.36800
N4751       N  0.53756689  0.92091180  0.36105141    -0.37800
N4752       N  0.51755503  0.94979253  0.39583764    -0.39500
C4753       C  0.57905878  0.59515469  0.96407395    -0.04400
C4754       C  0.58050338  0.57821228  0.95965107     0.09700
C4755       C  0.59363791  0.57316524  0.94910048    -0.01800
C4756       C  0.60559398  0.58488104  0.94343291    -0.00100
C4757       C  0.60473643  0.60178136  0.94858195    -0.03700
C4758       C  0.59100426  0.60692565  0.95844373     0.03300
C4759       C  0.56809402  0.56564982  0.96604924     0.10200
C4760       C  0.59486126  0.55581892  0.94416084     0.36100
C4761       C  0.58842964  0.62443470  0.96195902     0.39500
C4762       C  0.55331756  0.56238711  0.95708664    -0.04000
C4763       C  0.54159955  0.55058815  0.96310591     0.03100
C4764       C  0.54447310  0.54197067  0.97835738    -0.03600
C4765       C  0.55948969  0.54525266  0.98723278     0.00100
C4766       C  0.57120290  0.55697598  0.98104308    -0.02400
C4767       C  0.55017206  0.57128474  0.94161774     0.36800
C4768       C  0.56329290  0.53627146  0.00251331     0.40400
C4769       C  0.52646005  0.54767557  0.95360305     0.39600
C4770       C  0.58662502  0.56007824  0.99002635     0.36500
C4771       C  0.56508777  0.60046397  0.97429141     0.37200
C4772       C  0.61899215  0.57933921  0.93258109     0.40400
N4773       N  0.51448424  0.54530056  0.94588089    -0.37600
N4774       N  0.54766416  0.57839950  0.92928942    -0.39200
N4775       N  0.56637333  0.52916713  0.01472066    -0.37000
N4776       N  0.59897187  0.56255572  0.99710408    -0.39400
N4777       N  0.59580362  0.54197396  0.94023919    -0.39100
N4778       N  0.62965509  0.57488530  0.92391442    -0.36800
N4779       N  0.58589465  0.63834669  0.96475482    -0.37800
N4780       N  0.55388351  0.60464472  0.98239191    -0.39500
C4781       C  0.46056674  0.56628547  0.05120556    -0.04400
C4782       C  0.46830173  0.56813971  0.06689218     0.09700
C4783       C  0.48176556  0.55774013  0.07130212    -0.01800
C4784       C  0.48733834  0.54533206  0.06016856    -0.00100
C4785       C  0.47984427  0.54363562  0.04425581    -0.03700
C4786       C  0.46649152  0.55430710  0.03979195     0.03300
C4787       C  0.46175072  0.58053408  0.07915936     0.10200
C4788       C  0.48969817  0.55970941  0.08746122     0.36100
C4789       C  0.45906848  0.55331177  0.02329766     0.39500
C4790       C  0.45062316  0.57528615  0.09178221    -0.04000
C4791       C  0.44478960  0.58674836  0.10373016     0.03100
C4792       C  0.45004264  0.60362224  0.10312337    -0.03600
C4793       C  0.46033362  0.60904746  0.08979559     0.00100
C4794       C  0.46649631  0.59745278  0.07809509    -0.02400
C4795       C  0.44520783  0.55801073  0.09243636     0.36800
C4796       C  0.46357197  0.62665178  0.08724838     0.40400
C4797       C  0.43360428  0.58101787  0.11683383     0.39600
C4798       C  0.47770772  0.60290467  0.06490537     0.36500
C4799       C  0.44626566  0.57651692  0.04697693     0.37200
C4800       C  0.50017572  0.53377183  0.06550786     0.40400
N4801       N  0.42471266  0.57642754  0.12729913    -0.37600
N4802       N  0.44091284  0.54422276  0.09288205    -0.39200
N4803       N  0.46603879  0.64063982  0.08462015    -0.37000
N4804       N  0.48666996  0.60724977  0.05439647    -0.39400
N4805       N  0.49596486  0.56135923  0.10036577    -0.39100
N4806       N  0.51029017  0.52446241  0.06987955    -0.36800
N4807       N  0.45318818  0.55254309  0.01012724    -0.37800
N4808       N  0.43478799  0.58461061  0.04367856    -0.39500
C4809       C  0.59707399  0.46461970  0.08045506    -0.04400
C4810       C  0.57989464  0.46177199  0.08328462     0.09700
C4811       C  0.57475370  0.45280909  0.09758742    -0.01800
C4812       C  0.58671949  0.44665323  0.10893339    -0.00100
C4813       C  0.60390076  0.45011017  0.10648464    -0.03700
C4814       C  0.60903996  0.45864730  0.09189476     0.03300
C4815       C  0.56732382  0.46748574  0.07065559     0.10200
C4816       C  0.55710401  0.45007017  0.10068993     0.36100
C4817       C  0.62660618  0.46002772  0.08775828     0.39500
C4818       C  0.56030917  0.45600107  0.05938022    -0.04000
C4819       C  0.54905101  0.46138381  0.04691489     0.03100
C4820       C  0.54460483  0.47855470  0.04550462    -0.03600
C4821       C  0.55218916  0.49008231  0.05679924     0.00100
C4822       C  0.56309222  0.48445119  0.06945964    -0.02400
C4823       C  0.56482888  0.43851248  0.06061065     0.36800
C4824       C  0.54928774  0.50789801  0.05550499     0.40400
C4825       C  0.54265300  0.44903432  0.03533259     0.39600
C4826       C  0.56986245  0.49613421  0.08153479     0.36500
C4827       C  0.60244148  0.47348024  0.06555171     0.37200
C4828       C  0.58129999  0.43667588  0.12309604     0.40400
N4829       N  0.53766979  0.43905003  0.02617511    -0.37600
N4830       N  0.56841859  0.42458568  0.06172116    -0.39200
N4831       N  0.54727280  0.52215095  0.05445413    -0.37000
N4832       N  0.57515483  0.50540613  0.09124427    -0.39400
N4833       N  0.54301882  0.44791735  0.10318820    -0.39100
N4834       N  0.57701091  0.42865836  0.13436075    -0.36800
N4835       N  0.64048156  0.46097805  0.08380301    -0.37800
N4836       N  0.60668782  0.48060841  0.05369216    -0.39500
C4837       C  0.40424143  0.42158611  0.04095893    -0.04400
C4838       C  0.42130609  0.42105992  0.04525324     0.09700
C4839       C  0.42693311  0.40926514  0.05703837    -0.01800
C4840       C  0.41566528  0.39765654  0.06406791    -0.00100
C4841       C  0.39870345  0.39758106  0.05910360    -0.03700
C4842       C  0.39290614  0.41013680  0.04815904     0.03300
C4843       C  0.43330750  0.43340845  0.03791587     0.10200
C4844       C  0.44439601  0.40904297  0.06183278     0.36100
C4845       C  0.37517085  0.41217729  0.04527733     0.39500
C4846       C  0.43436021  0.44962799  0.04457215    -0.04000
C4847       C  0.44608982  0.46113993  0.03813660     0.03100
C4848       C  0.45689739  0.45650104  0.02490630    -0.03600
C4849       C  0.45549733  0.44030960  0.01800002     0.00100
C4850       C  0.44381873  0.42879440  0.02457389    -0.02400
C4851       C  0.42344869  0.45436164  0.05823904     0.36800
C4852       C  0.46556828  0.43566102  0.00368336     0.40400
C4853       C  0.44727261  0.47760342  0.04553398     0.39600
C4854       C  0.44254828  0.41214956  0.01762530     0.36500
C4855       C  0.39836903  0.43398364  0.02914762     0.37200
C4856       C  0.42166950  0.38559743  0.07617572     0.40400
N4857       N  0.44814437  0.49073539  0.05143881    -0.37600
N4858       N  0.41468056  0.45806890  0.06910516    -0.39200
N4859       N  0.47352936  0.43197398  0.99220443    -0.37000
N4860       N  0.44152857  0.39883817  0.01216900    -0.39400
N4861       N  0.45834319  0.40886629  0.06559817    -0.39100
N4862       N  0.42645937  0.37598972  0.08584025    -0.36800
N4863       N  0.36105996  0.41434669  0.04310321    -0.37800
N4864       N  0.39370479  0.44388367  0.01972245    -0.39500
C4865       C  0.42068624  0.53525496  0.90846045    -0.04400
C4866       C  0.41894160  0.53909982  0.92552926     0.09700
C4867       C  0.40566258  0.54928740  0.93086422    -0.01800
C4868       C  0.39394719  0.55532648  0.91920880    -0.00100
C4869       C  0.39534289  0.55104506  0.90212014    -0.03700
C4870       C  0.40914965  0.54150027  0.89674075     0.03300
C4871       C  0.43158696  0.53296985  0.93778024     0.10200
C4872       C  0.40407856  0.55351671  0.94839123     0.36100
C4873       C  0.41240669  0.53922002  0.87910667     0.39500
C4874       C  0.44516433  0.54327367  0.94229054    -0.04000
C4875       C  0.45736924  0.53738451  0.95349979     0.03100
C4876       C  0.45612125  0.52110286  0.96013449    -0.03600
C4877       C  0.44242850  0.51085225  0.95575705     0.00100
C4878       C  0.43018862  0.51678003  0.94458873    -0.02400
C4879       C  0.44654151  0.55994322  0.93533780     0.36800
C4880       C  0.44113659  0.49407513  0.96248039     0.40400
C4881       C  0.47086949  0.54829748  0.95868940     0.39600
C4882       C  0.41616945  0.50624217  0.94000906     0.36500
C4883       C  0.43457451  0.52504986  0.90296929     0.37200
C4884       C  0.38035320  0.56581377  0.92489659     0.40400
N4885       N  0.48153507  0.55708001  0.96293934    -0.37600
N4886       N  0.44758262  0.57323845  0.92976920    -0.39200
N4887       N  0.44015467  0.48069358  0.96785339    -0.37000
N4888       N  0.40497087  0.49787251  0.93631723    -0.39400
N4889       N  0.40284884  0.55691171  0.96237273    -0.39100
N4890       N  0.36948374  0.57414665  0.92942572    -0.36800
N4891       N  0.41563770  0.53750460  0.86513365    -0.37800
N4892       N  0.44564799  0.51686782  0.89866828    -0.39500
C4893       C  0.51740644  0.44102268  0.93153602    -0.04400
C4894       C  0.53173375  0.43140181  0.93494697     0.09700
C4895       C  0.54052281  0.43391146  0.94999674    -0.01800
C4896       C  0.53502748  0.44593629  0.96159932    -0.00100
C4897       C  0.52054884  0.45546921  0.95833662    -0.03700
C4898       C  0.51180221  0.45300006  0.94317803     0.03300
C4899       C  0.53767942  0.41861653  0.92266272     0.10200
C4900       C  0.55532820  0.42413379  0.95347616     0.36100
C4901       C  0.49675029  0.46242243  0.93973369     0.39500
C4902       C  0.54817950  0.42336118  0.90931217    -0.04000
C4903       C  0.55434111  0.41125334  0.89813872     0.03100
C4904       C  0.54972489  0.39427135  0.89995483    -0.03600
C4905       C  0.53948235  0.38951402  0.91359334     0.00100
C4906       C  0.53336954  0.40167103  0.92478345    -0.02400
C4907       C  0.55269495  0.44076269  0.90713486     0.36800
C4908       C  0.53614669  0.37206341  0.91694918     0.40400
C4909       C  0.56534537  0.41636790  0.88463739     0.39600
C4910       C  0.52281009  0.39677172  0.93870722     0.36500
C4911       C  0.50839511  0.43846206  0.91604984     0.37200
C4912       C  0.54470790  0.44896345  0.97659934     0.40400
N4913       N  0.57406461  0.42041743  0.87381161    -0.37600
N4914       N  0.55625740  0.45465570  0.90537779    -0.39200
N4915       N  0.53348068  0.35823241  0.92016603    -0.37000
N4916       N  0.51440266  0.39295711  0.94985806    -0.39400
N4917       N  0.56711669  0.41629486  0.95624936    -0.39100
N4918       N  0.55245666  0.45147313  0.98852326    -0.36800
N4919       N  0.48473486  0.46992939  0.93699140    -0.37800
N4920       N  0.50127305  0.43637913  0.90366221    -0.39500
loop_ 
_geom_bond_atom_site_label_1 
_geom_bond_atom_site_label_2 
_geom_bond_distance 
_geom_bond_site_symmetry_2 
_ccdc_geom_bond_type 
Zn1           O5   1.965   1_556  S
Zn1           O6   2.030       .  S
Zn1          O10   2.028       .  S
Zn1          O17   2.026       .  S
Zn2           O5   1.962       .  S
Zn2           O7   2.023       .  S
Zn2           O9   2.023       .  S
Zn2          O13   2.017       .  S
Zn3           O5   1.960       .  S
Zn3           O8   2.006   1_554  S
Zn3          O11   2.013       .  S
Zn3          O14   2.009       .  S
Zn4           O5   1.966       .  S
Zn4          O12   2.035       .  S
Zn4          O15   2.035       .  S
Zn4          O16   2.031   1_554  S
O6           C18   1.275       .  A
O7           C19   1.274       .  A
O8           C20   1.271       .  A
O9           C18   1.274   1_554  A
O10          C20   1.274       .  A
O11          C19   1.273       .  A
O12          C21   1.275       .  A
O13          C22   1.273       .  A
O14          C21   1.272       .  A
O15          C22   1.276       .  A
O16          C23   1.276       .  A
O17          C23   1.275       .  A
C18        C4764   1.503       .  S
C19        C4785   1.490       .  S
C20        C4876   1.480       .  S
C21        C4848   1.492       .  S
C22        C4820   1.516       .  S
C23        C4897   1.491       .  S
Zn24         O28   1.971   1_545  S
Zn24         O29   2.040       .  S
Zn24         O33   2.038       .  S
Zn24         O40   2.026       .  S
Zn25         O28   1.954       .  S
Zn25         O30   2.013       .  S
Zn25         O32   1.996   1_565  S
Zn25         O36   2.012       .  S
Zn26         O28   1.962       .  S
Zn26         O31   2.017   1_565  S
Zn26         O34   2.029       .  S
Zn26         O37   2.024       .  S
Zn27         O28   1.961       .  S
Zn27         O35   2.016       .  S
Zn27         O38   2.032       .  S
Zn27         O39   2.021   1_565  S
O29          C41   1.276       .  A
O30          C42   1.273       .  A
O31          C43   1.274       .  A
O32          C41   1.271       .  A
O33          C43   1.276       .  A
O34          C42   1.274       .  A
O35          C44   1.274       .  A
O36          C45   1.272       .  A
O37          C44   1.275       .  A
O38          C45   1.276       .  A
O39          C46   1.273       .  A
O40          C46   1.274       .  A
C41        C4645   1.495       .  S
C42        C4701   1.483       .  S
C43        C4680   1.502       .  S
C44        C4736   1.496       .  S
C45        C4589   1.493       .  S
C46        C4624   1.480       .  S
Zn47         O51   1.963   1_655  S
Zn47         O52   2.029       .  S
Zn47         O56   2.048       .  S
Zn47         O63   2.032       .  S
Zn48         O51   1.960       .  S
Zn48         O53   2.000       .  S
Zn48         O55   2.014       .  S
Zn48         O59   2.021       .  S
Zn49         O51   1.961       .  S
Zn49         O54   2.011   1_455  S
Zn49         O57   2.012       .  S
Zn49         O60   2.013       .  S
Zn50         O51   1.955       .  S
Zn50         O58   2.009       .  S
Zn50         O61   2.025       .  S
Zn50         O62   2.022   1_455  S
O52          C64   1.276       .  A
O53          C65   1.271       .  A
O54          C66   1.272       .  A
O55          C64   1.274   1_455  A
O56          C66   1.277       .  A
O57          C65   1.273       .  A
O58          C67   1.273       .  A
O59          C68   1.273       .  A
O60          C67   1.273       .  A
O61          C68   1.274       .  A
O62          C69   1.274       .  A
O63          C69   1.275       .  A
C64        C4421   1.486       .  S
C65        C4449   1.475       .  S
C66        C4561   1.499       .  S
C67        C4484   1.492       .  S
C68        C4505   1.503       .  S
C69        C4533   1.483       .  S
Zn70         O74   1.964   1_554  S
Zn70         O75   2.013       .  S
Zn70         O79   2.021   1_554  S
Zn70         O86   2.023       .  S
Zn71         O74   1.971   1_654  S
Zn71         O76   2.026   1_554  S
Zn71         O78   2.046       .  S
Zn71         O82   2.042   1_545  S
Zn72         O74   1.970       .  S
Zn72         O77   2.042       .  S
Zn72         O80   2.028   1_455  S
Zn72         O83   2.029   1_545  S
Zn73         O74   1.964   1_565  S
Zn73         O81   2.028       .  S
Zn73         O84   2.043   1_456  S
Zn73         O85   2.021   1_556  S
O75          C87   1.272   1_455  A
O76          C88   1.274       .  A
O77          C89   1.276       .  A
O78          C87   1.277       .  A
O79          C89   1.273       .  A
O80          C88   1.275       .  A
O81          C90   1.275       .  A
O82          C91   1.276       .  A
O83          C90   1.274       .  A
O84          C91   1.277       .  A
O85          C92   1.274       .  A
O86          C92   1.274   1_545  A
C87        C4281   1.507       .  S
C88        C4372   1.481       .  S
C89        C4253   1.488       .  S
C90        C4393   1.503       .  S
C91        C4337   1.498       .  S
C92        C4309   1.509       .  S
Zn93         O97   1.955       .  S
Zn93         O98   2.016       .  S
Zn93        O102   2.002       .  S
Zn93        O109   2.008       .  S
Zn94         O97   1.954       .  S
Zn94         O99   2.019       .  S
Zn94        O101   2.024       .  S
Zn94        O105   2.010       .  S
Zn95         O97   1.962       .  S
Zn95        O100   2.023       .  S
Zn95        O103   2.031       .  S
Zn95        O106   2.022       .  S
Zn96         O97   1.959       .  S
Zn96        O104   2.017       .  S
Zn96        O107   2.014       .  S
Zn96        O108   2.029       .  S
O98         C110   1.273       .  A
O99         C111   1.273       .  A
O100        C112   1.274       .  A
O101        C110   1.275       .  A
O102        C112   1.272       .  A
O103        C111   1.275       .  A
O104        C113   1.273       .  A
O105        C114   1.273       .  A
O106        C113   1.274       .  A
O107        C114   1.274       .  A
O108        C115   1.274       .  A
O109        C115   1.271       .  A
C110       C4169   1.492       .  S
C111       C4120   1.505       .  S
C112       C4225   1.476       .  S
C113       C4141   1.484       .  S
C114       C4092   1.504       .  S
C115       C4197   1.486       .  S
Zn116       O120   1.960       .  S
Zn116       O121   2.012       .  S
Zn116       O125   2.015       .  S
Zn116       O132   2.014       .  S
Zn117       O120   1.962       .  S
Zn117       O122   2.023       .  S
Zn117       O124   2.019       .  S
Zn117       O128   2.020       .  S
Zn118       O120   1.966       .  S
Zn118       O123   2.036       .  S
Zn118       O126   2.030       .  S
Zn118       O129   2.033       .  S
Zn119       O120   1.956       .  S
Zn119       O127   2.016       .  S
Zn119       O130   2.024       .  S
Zn119       O131   2.021       .  S
O121        C133   1.273       .  A
O122        C134   1.274       .  A
O123        C135   1.276       .  A
O124        C133   1.274       .  A
O125        C135   1.274       .  A
O126        C134   1.275       .  A
O127        C136   1.273       .  A
O128        C137   1.273       .  A
O129        C136   1.275       .  A
O130        C137   1.274       .  A
O131        C138   1.275       .  A
O132        C138   1.272       .  A
C133       C4029   1.495       .  S
C134       C4057   1.482       .  S
C135       C4001   1.493       .  S
C136       C3917   1.486       .  S
C137       C3945   1.485       .  S
C138       C3973   1.503       .  S
Zn139       O143   1.958       .  S
Zn139       O144   1.998       .  S
Zn139       O148   2.022       .  S
Zn139       O155   2.013       .  S
Zn140       O143   1.962       .  S
Zn140       O145   2.027       .  S
Zn140       O147   2.018       .  S
Zn140       O151   2.018       .  S
Zn141       O143   1.953       .  S
Zn141       O146   2.011       .  S
Zn141       O149   1.996       .  S
Zn141       O152   2.008       .  S
Zn142       O143   1.959       .  S
Zn142       O150   2.020       .  S
Zn142       O153   2.025       .  S
Zn142       O154   2.008       .  S
O144        C156   1.271       .  A
O145        C157   1.275       .  A
O146        C158   1.272       .  A
O147        C156   1.274       .  A
O148        C158   1.274       .  A
O149        C157   1.271       .  A
O150        C159   1.275       .  A
O151        C160   1.274       .  A
O152        C159   1.272       .  A
O153        C160   1.274       .  A
O154        C161   1.272       .  A
O155        C161   1.273       .  A
C156       C3833   1.479       .  S
C157       C3749   1.488       .  S
C158       C3861   1.493       .  S
C159       C3784   1.493       .  S
C160       C3805   1.484       .  S
C161       C3889   1.477       .  S
Zn162       O166   1.957       .  S
Zn162       O167   2.015       .  S
Zn162       O171   2.030       .  S
Zn162       O178   2.027       .  S
Zn163       O166   1.943       .  S
Zn163       O168   2.005       .  S
Zn163       O170   1.988       .  S
Zn163       O174   1.993       .  S
Zn164       O166   1.942       .  S
Zn164       O169   1.995       .  S
Zn164       O172   2.006       .  S
Zn164       O175   2.001       .  S
Zn165       O166   1.952       .  S
Zn165       O173   2.012       .  S
Zn165       O176   2.012       .  S
Zn165       O177   2.008       .  S
O167        C179   1.273       .  A
O168        C180   1.271       .  A
O169        C181   1.271       .  A
O170        C179   1.270       .  A
O171        C181   1.276       .  A
O172        C180   1.271       .  A
O173        C182   1.273       .  A
O174        C183   1.271       .  A
O175        C182   1.272       .  A
O176        C183   1.273       .  A
O177        C184   1.273       .  A
O178        C184   1.276       .  A
C179       C3721   1.491       .  S
C180       C3665   1.489       .  S
C181       C3637   1.498       .  S
C182       C3581   1.494       .  S
C183       C3609   1.487       .  S
C184       C3693   1.491       .  S
N185        C189   1.359       .  A
N185        C186   1.361       .  A
N185       C3644   1.449       .  S
C186       C3756   1.493       .  S
C186        C187   1.383       .  A
C187        C188   1.376       .  A
C187        H190   1.085       .  S
C188        C189   1.382       .  A
C188        H191   1.084       .  S
C189       C3553   1.492       .  S
N192        C196   1.359       .  A
N192        C193   1.359       .  A
N192       C3588   1.446       .  S
C193       C4869   1.493       .  S
C193        C194   1.382       .  A
C194        C195   1.378       .  A
C194        H197   1.081       .  S
C195        C196   1.384       .  A
C195        H198   1.083       .  S
C196       C3777   1.494       .  S
N199        C203   1.362       .  A
N199        C200   1.360       .  A
N199       C3616   1.444       .  S
C200       C4904   1.499       .  S
C200        C201   1.382       .  A
C201        C202   1.378       .  A
C201        H204   1.083       .  S
C202        C203   1.384       .  A
C202        H205   1.084       .  S
C203       C3952   1.500       .  S
N206        C210   1.361       .  A
N206        C207   1.361       .  A
N206       C3672   1.448       .  S
C207       C3868   1.497       .  S
C207        C208   1.383       .  A
C208        C209   1.377       .  A
C208        H211   1.083       .  S
C209        C210   1.383       .  A
C209        H212   1.082       .  S
C210       C4064   1.495       .  S
N213        C217   1.359       .  A
N213        C214   1.360       .  A
N213       C3728   1.444       .  S
C214       C3525   1.498       .  S
C214        C215   1.383       .  A
C215        C216   1.379       .  A
C215        H218   1.081       .  S
C216        C217   1.383       .  A
C216        H219   1.083       .  S
C217       C3924   1.497       .  S
N220        C224   1.360       .  A
N220        C221   1.359       .  A
N220       C3700   1.450       .  S
C221       C4841   1.492       .  S
C221        C222   1.382       .  A
C222        C223   1.377       .  A
C222        H225   1.084       .  S
C223        C224   1.384       .  A
C223        H226   1.084       .  S
C224       C3504   1.494       .  S
Zn227       O231   1.966   1_556  S
Zn227       O232   2.014       .  S
Zn227       O236   2.027       .  S
Zn227       O243   2.024   1_556  S
Zn228       O231   1.960   1_556  S
Zn228       O233   2.034       .  S
Zn228       O235   2.025       .  S
Zn228       O239   2.028   1_556  S
Zn229       O231   1.956   1_556  S
Zn229       O234   2.020       .  S
Zn229       O237   2.015       .  S
Zn229       O240   2.022   1_556  S
Zn230       O231   1.952       .  S
Zn230       O238   2.002       .  S
Zn230       O241   2.013       .  S
Zn230       O242   2.014       .  S
O232        C244   1.273       .  A
O233        C245   1.276       .  A
O234        C246   1.274       .  A
O235        C244   1.276       .  A
O236        C246   1.275       .  A
O237        C245   1.274       .  A
O238        C247   1.271       .  A
O239        C248   1.274       .  A
O240        C247   1.274       .  A
O241        C248   1.273       .  A
O242        C249   1.274       .  A
O243        C249   1.274       .  A
C244       C3560   1.482       .  S
C245       C3413   1.485       .  S
C246       C3532   1.493       .  S
C247       C3476   1.499       .  S
C248       C3441   1.495       .  S
C249       C3497   1.483       .  S
Zn250       O254   1.958       .  S
Zn250       O255   2.016       .  S
Zn250       O259   2.021       .  S
Zn250       O266   2.015       .  S
Zn251       O254   1.964       .  S
Zn251       O256   2.045       .  S
Zn251       O258   2.021       .  S
Zn251       O262   2.032       .  S
Zn252       O254   1.955       .  S
Zn252       O257   2.015       .  S
Zn252       O260   2.003       .  S
Zn252       O263   1.997       .  S
Zn253       O254   1.965       .  S
Zn253       O261   2.015       .  S
Zn253       O264   2.020       .  S
Zn253       O265   2.029       .  S
O255        C267   1.274       .  A
O256        C268   1.276       .  A
O257        C269   1.272       .  A
O258        C267   1.275       .  A
O259        C269   1.273       .  A
O260        C268   1.271       .  A
O261        C270   1.273       .  A
O262        C271   1.277       .  A
O263        C270   1.271       .  A
O264        C271   1.274       .  A
O265        C272   1.275       .  A
O266        C272   1.272       .  A
C267       C3273   1.493       .  S
C268       C3252   1.487       .  S
C269       C3329   1.478       .  S
C270       C3357   1.490       .  S
C271       C3301   1.504       .  S
C272       C3392   1.490       .  S
Zn273       O277   1.962       .  S
Zn273       O278   2.021       .  S
Zn273       O282   2.028       .  S
Zn273       O289   2.023       .  S
Zn274       O277   1.958       .  S
Zn274       O279   2.008       .  S
Zn274       O281   2.008       .  S
Zn274       O285   2.009       .  S
Zn275       O277   1.958       .  S
Zn275       O280   2.022       .  S
Zn275       O283   2.018       .  S
Zn275       O286   2.010       .  S
Zn276       O277   1.965       .  S
Zn276       O284   2.030       .  S
Zn276       O287   2.023       .  S
Zn276       O288   2.023       .  S
O278        C290   1.274       .  A
O279        C291   1.272       .  A
O280        C292   1.274       .  A
O281        C290   1.273       .  A
O282        C292   1.275       .  A
O283        C291   1.273       .  A
O284        C293   1.274       .  A
O285        C294   1.272       .  A
O286        C293   1.272       .  A
O287        C294   1.274       .  A
O288        C295   1.274       .  A
O289        C295   1.275       .  A
C290       C3161   1.491       .  S
C291       C3217   1.482       .  S
C292       C3084   1.496       .  S
C293       C3140   1.479       .  S
C294       C3196   1.482       .  S
C295       C3105   1.493       .  S
Zn296       O300   1.959       .  S
Zn296       O301   2.015       .  S
Zn296       O305   2.020       .  S
Zn296       O312   2.018       .  S
Zn297       O300   1.958       .  S
Zn297       O302   2.018       .  S
Zn297       O304   2.030       .  S
Zn297       O308   2.016       .  S
Zn298       O300   1.954       .  S
Zn298       O303   2.019       .  S
Zn298       O306   2.003       .  S
Zn298       O309   2.021       .  S
Zn299       O300   1.955       .  S
Zn299       O307   2.007       .  S
Zn299       O310   2.015       .  S
Zn299       O311   2.010       .  S
O301        C313   1.274       .  A
O302        C314   1.273       .  A
O303        C315   1.274       .  A
O304        C313   1.275       .  A
O305        C315   1.274       .  A
O306        C314   1.272       .  A
O307        C316   1.272       .  A
O308        C317   1.274       .  A
O309        C316   1.273       .  A
O310        C317   1.272       .  A
O311        C318   1.273       .  A
O312        C318   1.273       .  A
C313       C3021   1.487       .  S
C314       C2965   1.498       .  S
C315       C2993   1.489       .  S
C316       C2916   1.501       .  S
C317       C3049   1.493       .  S
C318       C2937   1.482       .  S
N319        C323   1.364       .  A
N319        C320   1.365       .  A
N319       C3056   1.448       .  S
C320       C2881   1.506       .  S
C320        C321   1.385       .  A
C321        C322   1.376       .  A
C321        H324   1.083       .  S
C322        C323   1.382       .  A
C322        H325   1.083       .  S
C323       C4757   1.503       .  S
N326        C330   1.357       .  A
N326        C327   1.358       .  A
N326       C2909   1.446       .  S
C327       C4813   1.492       .  S
C327        C328   1.384       .  A
C328        C329   1.379       .  A
C328        H331   1.082       .  S
C329        C330   1.382       .  A
C329        H332   1.083       .  S
C330       C3364   1.489       .  S
N333        C337   1.357       .  A
N333        C334   1.357       .  A
N333       C2972   1.445       .  S
C334       C2860   1.493       .  S
C334        C335   1.384       .  A
C335        C336   1.380       .  A
C335        H338   1.081       .  S
C336        C337   1.383       .  A
C336        H339   1.083       .  S
C337       C3308   1.492       .  S
N340        C344   1.360       .  A
N340        C341   1.359       .  A
N340       C2944   1.448       .  S
C341       C4792   1.493       .  S
C341        C342   1.383       .  A
C342        C343   1.376       .  A
C342        H345   1.084       .  S
C343        C344   1.383       .  A
C343        H346   1.085       .  S
C344       C4204   1.493       .  S
N347        C351   1.362       .  A
N347        C348   1.361       .  A
N347       C3028   1.452       .  S
C348       C2825   1.491       .  S
C348        C349   1.382       .  A
C349        C350   1.374       .  A
C349        H352   1.082       .  S
C350        C351   1.383       .  A
C350        H353   1.083       .  S
C351       C4148   1.493       .  S
N354        C358   1.361       .  A
N354        C355   1.360       .  A
N354       C3000   1.452       .  S
C355       C4232   1.490       .  S
C355        C356   1.382       .  A
C356        C357   1.375       .  A
C356        H359   1.083       .  S
C357        C358   1.383       .  A
C357        H360   1.084       .  S
C358       C3385   1.491       .  S
Zn361       O365   1.967   1_554  S
Zn361       O366   2.032   1_554  S
Zn361       O370   2.013       .  S
Zn361       O377   2.018       .  S
Zn362       O365   1.969       .  S
Zn362       O367   2.032       .  S
Zn362       O369   2.038       .  S
Zn362       O373   2.035       .  S
Zn363       O365   1.960   1_554  S
Zn363       O368   2.015       .  S
Zn363       O371   2.012   1_554  S
Zn363       O374   2.040       .  S
Zn364       O365   1.960   1_554  S
Zn364       O372   2.035       .  S
Zn364       O375   2.007   1_554  S
Zn364       O376   2.014       .  S
O366        C378   1.275       .  A
O367        C379   1.276       .  A
O368        C380   1.273       .  A
O369        C378   1.276       .  A
O370        C380   1.272       .  A
O371        C379   1.274       .  A
O372        C381   1.275       .  A
O373        C382   1.276       .  A
O374        C381   1.276       .  A
O375        C382   1.272       .  A
O376        C383   1.273       .  A
O377        C383   1.273       .  A
C378       C2888   1.494       .  S
C379       C2797   1.494       .  S
C380       C2832   1.508       .  S
C381       C2741   1.498       .  S
C382       C2769   1.482       .  S
C383       C2853   1.500       .  S
Zn384       O388   1.949       .  S
Zn384       O389   2.008       .  S
Zn384       O393   1.998       .  S
Zn384       O400   2.015       .  S
Zn385       O388   1.949       .  S
Zn385       O390   2.012       .  S
Zn385       O392   2.012       .  S
Zn385       O396   2.013       .  S
Zn386       O388   1.953       .  S
Zn386       O391   2.018       .  S
Zn386       O394   2.029       .  S
Zn386       O397   2.018       .  S
Zn387       O388   1.945       .  S
Zn387       O395   2.012       .  S
Zn387       O398   1.994       .  S
Zn387       O399   1.995       .  S
O389        C401   1.272       .  A
O390        C402   1.274       .  A
O391        C403   1.274       .  A
O392        C401   1.272       .  A
O393        C403   1.272       .  A
O394        C402   1.276       .  A
O395        C404   1.272       .  A
O396        C405   1.273       .  A
O397        C404   1.274       .  A
O398        C405   1.270       .  A
O399        C406   1.272       .  A
O400        C406   1.273       .  A
C401       C2713   1.504       .  S
C402       C2601   1.486       .  S
C403       C2629   1.493       .  S
C404       C2573   1.499       .  S
C405       C2657   1.486       .  S
C406       C2692   1.481       .  S
N407        C411   1.358       .  A
N407        C408   1.358       .  A
N407       C2636   1.443       .  S
C408       C2545   1.493       .  S
C408        C409   1.383       .  A
C409        C410   1.379       .  A
C409        H412   1.084       .  S
C410        C411   1.383       .  A
C410        H413   1.083       .  S
C411       C4428   1.495       .  S
N414        C418   1.358       .  A
N414        C415   1.358       .  A
N414       C2685   1.446       .  S
C415       C3133   1.491       .  S
C415        C416   1.382       .  A
C416        C417   1.379       .  A
C416        H419   1.083       .  S
C417        C418   1.383       .  A
C417        H420   1.084       .  S
C418       C2517   1.493       .  S
N421        C425   1.360       .  A
N421        C422   1.359       .  A
N421       C2580   1.448       .  S
C422       C3189   1.490       .  S
C422        C423   1.381       .  A
C423        C424   1.377       .  A
C423        H426   1.082       .  S
C424        C425   1.384       .  A
C424        H427   1.082       .  S
C425       C4512   1.494       .  S
N428        C432   1.358       .  A
N428        C429   1.358       .  A
N428       C2720   1.446       .  S
C429       C3812   1.493       .  S
C429        C430   1.383       .  A
C430        C431   1.378       .  A
C430        H433   1.084       .  S
C431        C432   1.383       .  A
C431        H434   1.083       .  S
C432       C2496   1.494       .  S
N435        C439   1.360       .  A
N435        C436   1.360       .  A
N435       C2608   1.452       .  S
C436       C3840   1.487       .  S
C436        C437   1.382       .  A
C437        C438   1.373       .  A
C437        H440   1.085       .  S
C438        C439   1.383       .  A
C438        H441   1.079       .  S
C439       C4456   1.488       .  S
N442        C446   1.358       .  A
N442        C443   1.358       .  A
N442       C2664   1.448       .  S
C443       C3896   1.489       .  S
C443        C444   1.383       .  A
C444        C445   1.376       .  A
C444        H447   1.083       .  S
C445        C446   1.382       .  A
C445        H448   1.082       .  S
C446       C3224   1.489       .  S
Zn449       O453   1.961       .  S
Zn449       O454   2.025       .  S
Zn449       O458   2.028       .  S
Zn449       O465   2.029       .  S
Zn450       O453   1.957   1_455  S
Zn450       O455   2.022       .  S
Zn450       O457   2.027   1_455  S
Zn450       O461   2.015       .  S
Zn451       O453   1.957   1_455  S
Zn451       O456   2.016   1_455  S
Zn451       O459   2.011       .  S
Zn451       O462   2.006       .  S
Zn452       O453   1.959   1_455  S
Zn452       O460   2.026       .  S
Zn452       O463   2.016       .  S
Zn452       O464   2.000   1_455  S
O454        C466   1.275       .  A
O455        C467   1.275       .  A
O456        C468   1.273       .  A
O457        C466   1.275       .  A
O458        C468   1.275       .  A
O459        C467   1.272       .  A
O460        C469   1.273       .  A
O461        C470   1.273       .  A
O462        C469   1.271       .  A
O463        C470   1.274       .  A
O464        C471   1.272       .  A
O465        C471   1.275       .  A
C466       C2461   1.490       .  S
C467       C2489   1.483       .  S
C468       C2552   1.506       .  S
C469       C2524   1.506       .  S
C470       C2405   1.494       .  S
C471       C2433   1.486       .  S
Zn472       O476   1.954       .  S
Zn472       O477   2.012       .  S
Zn472       O481   2.013       .  S
Zn472       O488   2.005       .  S
Zn473       O476   1.956       .  S
Zn473       O478   2.002       .  S
Zn473       O480   2.027       .  S
Zn473       O484   2.028       .  S
Zn474       O476   1.959       .  S
Zn474       O479   2.019       .  S
Zn474       O482   2.001       .  S
Zn474       O485   2.019       .  S
Zn475       O476   1.949       .  S
Zn475       O483   2.000       .  S
Zn475       O486   2.010       .  S
Zn475       O487   1.986       .  S
O477        C489   1.273       .  A
O478        C490   1.274       .  A
O479        C491   1.273       .  A
O480        C489   1.275       .  A
O481        C491   1.272       .  A
O482        C490   1.272       .  A
O483        C492   1.270       .  A
O484        C493   1.274       .  A
O485        C492   1.273       .  A
O486        C493   1.273       .  A
O487        C494   1.270       .  A
O488        C494   1.272       .  A
C489       C2377   1.493       .  S
C490       C2321   1.483       .  S
C491       C2244   1.476       .  S
C492       C2265   1.482       .  S
C493       C2293   1.498       .  S
C494       C2349   1.487       .  S
N495        C499   1.363       .  A
N495        C496   1.364       .  A
N495       C2328   1.444       .  S
C496       C2748   1.509       .  S
C496        C497   1.384       .  A
C497        C498   1.380       .  A
C497        H500   1.082       .  S
C498        C499   1.384       .  A
C498        H501   1.083       .  S
C499       C4344   1.506       .  S
N502        C506   1.359       .  A
N502        C503   1.360       .  A
N502       C2356   1.445       .  S
C503       C2209   1.497       .  S
C503        C504   1.384       .  A
C504        C505   1.377       .  A
C504        H507   1.084       .  S
C505        C506   1.382       .  A
C505        H508   1.084       .  S
C506       C2440   1.494       .  S
N509        C513   1.362       .  A
N509        C510   1.362       .  A
N509       C2272   1.448       .  S
C510       C2776   1.499       .  S
C510        C511   1.383       .  A
C511        C512   1.376       .  A
C511        H514   1.080       .  S
C512        C513   1.384       .  A
C512        H515   1.081       .  S
C513       C2468   1.499       .  S
N516        C520   1.375       .  A
N516        C517   1.376       .  A
N516       C2237   1.475       .  S
C517       C2181   1.494       .  S
C517        C518   1.380       .  A
C518        C519   1.364       .  A
C518        H521   1.085       .  S
C519        C520   1.378       .  A
C519        H522   1.084       .  S
C520       C2804   1.490       .  S
N523        C527   1.361       .  A
N523        C524   1.362       .  A
N523       C2300   1.450       .  S
C524       C4400   1.499       .  S
C524        C525   1.385       .  A
C525        C526   1.375       .  A
C525        H528   1.085       .  S
C526        C527   1.382       .  A
C526        H529   1.086       .  S
C527       C2412   1.493       .  S
N530        C534   1.361       .  A
N530        C531   1.361       .  A
N530       C2384   1.448       .  S
C531       C2160   1.496       .  S
C531        C532   1.383       .  A
C532        C533   1.377       .  A
C532        H535   1.084       .  S
C533        C534   1.383       .  A
C533        H536   1.083       .  S
C534       C4365   1.497       .  S
Zn537       O541   1.953       .  S
Zn537       O542   2.000       .  S
Zn537       O546   2.009       .  S
Zn537       O553   2.024       .  S
Zn538       O541   1.953       .  S
Zn538       O543   2.033       .  S
Zn538       O545   2.018       .  S
Zn538       O549   2.014       .  S
Zn539       O541   1.945       .  S
Zn539       O544   1.995       .  S
Zn539       O547   1.994       .  S
Zn539       O550   1.991       .  S
Zn540       O541   1.954       .  S
Zn540       O548   2.013       .  S
Zn540       O551   2.019       .  S
Zn540       O552   2.009       .  S
O542        C554   1.272       .  A
O543        C555   1.275       .  A
O544        C556   1.270       .  A
O545        C554   1.274       .  A
O546        C556   1.272       .  A
O547        C555   1.270       .  A
O548        C557   1.273       .  A
O549        C558   1.273       .  A
O550        C557   1.270       .  A
O551        C558   1.273       .  A
O552        C559   1.273       .  A
O553        C559   1.274       .  A
C554       C2125   1.490       .  S
C555       C2069   1.511       .  S
C556       C2097   1.498       .  S
C557       C2013   1.479       .  S
C558       C1985   1.506       .  S
C559       C2041   1.482       .  S
N560        C564   1.364       .  A
N560        C561   1.365       .  A
N560       C2048   1.449       .  S
C561       C4596   1.504       .  S
C561        C562   1.384       .  A
C562        C563   1.376       .  A
C562        H565   1.084       .  S
C563        C564   1.383       .  A
C563        H566   1.085       .  S
C564       C1957   1.505       .  S
N567        C571   1.361       .  A
N567        C568   1.361       .  A
N567       C2020   1.448       .  S
C568       C4617   1.495       .  S
C568        C569   1.382       .  A
C569        C570   1.374       .  A
C569        H572   1.084       .  S
C570        C571   1.383       .  A
C570        H573   1.084       .  S
C571       C1929   1.496       .  S
N574        C578   1.360       .  A
N574        C575   1.360       .  A
N574       C2132   1.448       .  S
C575       C1908   1.495       .  S
C575        C576   1.383       .  A
C576        C577   1.377       .  A
C576        H579   1.084       .  S
C577        C578   1.383       .  A
C577        H580   1.084       .  S
C578       C3980   1.496       .  S
N581        C585   1.360       .  A
N581        C582   1.358       .  A
N581       C1992   1.448       .  S
C582       C4652   1.489       .  S
C582        C583   1.381       .  A
C583        C584   1.376       .  A
C583        H586   1.083       .  S
C584        C585   1.385       .  A
C584        H587   1.084       .  S
C585       C4008   1.494       .  S
N588        C592   1.359       .  A
N588        C589   1.359       .  A
N588       C2104   1.445       .  S
C589       C1845   1.496       .  S
C589        C590   1.383       .  A
C590        C591   1.379       .  A
C590        H593   1.082       .  S
C591        C592   1.383       .  A
C591        H594   1.084       .  S
C592       C1880   1.497       .  S
N595        C599   1.355       .  A
N595        C596   1.356       .  A
N595       C2076   1.445       .  S
C596       C1824   1.487       .  S
C596        C597   1.384       .  A
C597        C598   1.380       .  A
C597        H600   1.080       .  S
C598        C599   1.381       .  A
C598        H601   1.079       .  S
C599       C4036   1.484       .  S
Zn602       O606   1.970       .  S
Zn602       O607   2.030       .  S
Zn602       O611   2.032       .  S
Zn602       O618   2.034       .  S
Zn603       O606   1.960       .  S
Zn603       O608   2.026       .  S
Zn603       O610   2.020       .  S
Zn603       O614   2.024   1_545  S
Zn604       O606   1.960       .  S
Zn604       O609   2.012       .  S
Zn604       O612   2.026       .  S
Zn604       O615   2.000   1_545  S
Zn605       O606   1.965   1_565  S
Zn605       O613   2.032       .  S
Zn605       O616   2.023       .  S
Zn605       O617   2.038       .  S
O607        C619   1.276       .  A
O608        C620   1.273       .  A
O609        C621   1.274       .  A
O610        C619   1.274       .  A
O611        C621   1.275       .  A
O612        C620   1.274       .  A
O613        C622   1.276       .  A
O614        C623   1.275       .  A
O615        C622   1.271       .  A
O616        C623   1.275       .  A
O617        C624   1.276       .  A
O618        C624   1.275   1_545  A
C619       C1873   1.506       .  S
C620       C2153   1.489       .  S
C621       C1901   1.482       .  S
C622       C2188   1.496       .  S
C623       C2216   1.498       .  S
C624       C1964   1.493       .  S
Zn625       O629   1.955       .  S
Zn625       O630   2.001       .  S
Zn625       O634   2.011       .  S
Zn625       O641   2.000       .  S
Zn626       O629   1.956       .  S
Zn626       O631   2.014       .  S
Zn626       O633   2.009       .  S
Zn626       O637   2.022       .  S
Zn627       O629   1.961       .  S
Zn627       O632   2.036       .  S
Zn627       O635   2.037       .  S
Zn627       O638   2.038       .  S
Zn628       O629   1.959       .  S
Zn628       O636   2.013       .  S
Zn628       O639   2.020       .  S
Zn628       O640   2.022       .  S
O630        C642   1.271       .  A
O631        C643   1.274       .  A
O632        C644   1.276       .  A
O633        C642   1.273       .  A
O634        C644   1.273       .  A
O635        C643   1.277       .  A
O636        C645   1.274       .  A
O637        C646   1.274       .  A
O638        C645   1.277       .  A
O639        C646   1.274       .  A
O640        C647   1.273       .  A
O641        C647   1.271       .  A
C642       C1817   1.489       .  S
C643       C1761   1.498       .  S
C644       C1852   1.499       .  S
C645       C1740   1.486       .  S
C646       C1789   1.495       .  S
C647       C1936   1.479       .  S
Zn648       O652   1.955       .  S
Zn648       O653   2.017       .  S
Zn648       O657   2.012       .  S
Zn648       O664   1.997       .  S
Zn649       O652   1.951       .  S
Zn649       O654   2.007       .  S
Zn649       O656   2.001       .  S
Zn649       O660   2.014       .  S
Zn650       O652   1.958       .  S
Zn650       O655   2.021       .  S
Zn650       O658   2.020       .  S
Zn650       O661   2.021       .  S
Zn651       O652   1.957       .  S
Zn651       O659   2.004       .  S
Zn651       O662   2.029       .  S
Zn651       O663   2.021       .  S
O653        C665   1.274       .  A
O654        C666   1.273       .  A
O655        C667   1.273       .  A
O656        C665   1.272       .  A
O657        C667   1.271       .  A
O658        C666   1.275       .  A
O659        C668   1.272       .  A
O660        C669   1.273       .  A
O661        C668   1.274       .  A
O662        C669   1.274       .  A
O663        C670   1.275       .  A
O664        C670   1.271       .  A
C665       C1593   1.481       .  S
C666       C1621   1.486       .  S
C667       C1677   1.504       .  S
C668       C1705   1.503       .  S
C669       C1649   1.504       .  S
C670       C1572   1.480       .  S
N671        C675   1.361       .  A
N671        C672   1.362       .  A
N671       C1628   1.448       .  S
C672       C3112   1.498       .  S
C672        C673   1.384       .  A
C673        C674   1.377       .  A
C673        H676   1.079       .  S
C674        C675   1.383       .  A
C674        H677   1.079       .  S
C675       C1537   1.497       .  S
N678        C682   1.359       .  A
N678        C679   1.359       .  A
N678       C1565   1.444       .  S
C679       C4729   1.495       .  S
C679        C680   1.383       .  A
C680        C681   1.378       .  A
C680        H683   1.082       .  S
C681        C682   1.384       .  A
C681        H684   1.082       .  S
C682       C4113   1.497       .  S
N685        C689   1.362       .  A
N685        C686   1.360       .  A
N685       C1600   1.447       .  S
C686       C3077   1.497       .  S
C686        C687   1.382       .  A
C687        C688   1.376       .  A
C687        H690   1.085       .  S
C688        C689   1.384       .  A
C688        H691   1.085       .  S
C689       C4708   1.499       .  S
N692        C696   1.360       .  A
N692        C693   1.360       .  A
N692       C1656   1.448       .  S
C693       C3168   1.494       .  S
C693        C694   1.383       .  A
C694        C695   1.377       .  A
C694        H697   1.082       .  S
C695        C696   1.383       .  A
C695        H698   1.083       .  S
C696       C4176   1.495       .  S
N699        C703   1.359       .  A
N699        C700   1.359       .  A
N699       C1712   1.449       .  S
C700       C4085   1.490       .  S
C700        C701   1.383       .  A
C701        C702   1.376       .  A
C701        H704   1.083       .  S
C702        C703   1.383       .  A
C702        H705   1.083       .  S
C703       C1509   1.491       .  S
N706        C710   1.360       .  A
N706        C707   1.360       .  A
N706       C1684   1.448       .  S
C707       C4673   1.495       .  S
C707        C708   1.384       .  A
C708        C709   1.382       .  A
C708        H711   1.069       .  S
C709        C710   1.385       .  A
C709        H712   1.066       .  S
C710       C1481   1.496       .  S
Zn713       O717   1.961   1_545  S
Zn713       O718   2.014       .  S
Zn713       O722   2.008       .  S
Zn713       O729   2.012       .  S
Zn714       O717   1.960       .  S
Zn714       O719   2.016       .  S
Zn714       O721   2.028       .  S
Zn714       O725   2.012       .  S
Zn715       O717   1.968   1_545  S
Zn715       O720   2.031       .  S
Zn715       O723   2.044   1_545  S
Zn715       O726   2.032       .  S
Zn716       O717   1.966   1_545  S
Zn716       O724   2.029       .  S
Zn716       O727   2.026   1_545  S
Zn716       O728   2.038       .  S
O718        C730   1.272   1_545  A
O719        C731   1.273       .  A
O720        C732   1.275       .  A
O721        C730   1.274       .  A
O722        C732   1.272       .  A
O723        C731   1.277       .  A
O724        C733   1.275       .  A
O725        C734   1.273       .  A
O726        C733   1.275       .  A
O727        C734   1.274       .  A
O728        C735   1.276       .  A
O729        C735   1.272       .  A
C730       C1397   1.484       .  S
C731       C1516   1.499       .  S
C732       C1453   1.513       .  S
C733       C1488   1.497       .  S
C734       C1544   1.481       .  S
C735       C1432   1.493       .  S
Zn736       O740   1.955       .  S
Zn736       O741   2.006       .  S
Zn736       O745   2.007       .  S
Zn736       O752   2.004       .  S
Zn737       O740   1.942       .  S
Zn737       O742   1.997       .  S
Zn737       O744   1.993       .  S
Zn737       O748   2.007       .  S
Zn738       O740   1.952       .  S
Zn738       O743   2.020       .  S
Zn738       O746   2.026       .  S
Zn738       O749   2.018       .  S
Zn739       O740   1.955       .  S
Zn739       O747   2.007       .  S
Zn739       O750   2.022       .  S
Zn739       O751   2.003       .  S
O741        C753   1.272       .  A
O742        C754   1.272       .  A
O743        C755   1.274       .  A
O744        C753   1.270       .  A
O745        C755   1.271       .  A
O746        C754   1.274       .  A
O747        C756   1.273       .  A
O748        C757   1.271       .  A
O749        C756   1.275       .  A
O750        C757   1.273       .  A
O751        C758   1.272       .  A
O752        C758   1.272       .  A
C753       C1320   1.475       .  S
C754       C1369   1.487       .  S
C755       C1257   1.478       .  S
C756       C1341   1.482       .  S
C757       C1229   1.477       .  S
C758       C1292   1.474       .  S
N759        C763   1.359       .  A
N759        C760   1.360       .  A
N759       C1348   1.446       .  S
C760       C4260   1.497       .  S
C760        C761   1.384       .  A
C761        C762   1.379       .  A
C761        H764   1.083       .  S
C762        C763   1.382       .  A
C762        H765   1.084       .  S
C763       C3420   1.495       .  S
N766        C770   1.358       .  A
N766        C767   1.359       .  A
N766       C1264   1.445       .  S
C767       C1404   1.498       .  S
C767        C768   1.385       .  A
C768        C769   1.379       .  A
C768        H771   1.084       .  S
C769        C770   1.382       .  A
C769        H772   1.083       .  S
C770       C4316   1.493       .  S
N773        C777   1.358       .  A
N773        C774   1.358       .  A
N773       C1285   1.446       .  S
C774       C1208   1.493       .  S
C774        C775   1.383       .  A
C775        C776   1.379       .  A
C775        H778   1.084       .  S
C776        C777   1.384       .  A
C776        H779   1.083       .  S
C777       C4288   1.496       .  S
N780        C784   1.361       .  A
N780        C781   1.362       .  A
N780       C1313   1.445       .  S
C781       C1173   1.501       .  S
C781        C782   1.384       .  A
C782        C783   1.378       .  A
C782        H785   1.083       .  S
C783        C784   1.382       .  A
C783        H786   1.084       .  S
C784       C1425   1.500       .  S
N787        C791   1.360       .  A
N787        C788   1.360       .  A
N787       C1236   1.446       .  S
C788       C1152   1.494       .  S
C788        C789   1.382       .  A
C789        C790   1.378       .  A
C789        H792   1.083       .  S
C790        C791   1.384       .  A
C790        H793   1.082       .  S
C791       C3448   1.499       .  S
N794        C798   1.360       .  A
N794        C795   1.360       .  A
N794       C1376   1.450       .  S
C795       C1460   1.491       .  S
C795        C796   1.382       .  A
C796        C797   1.375       .  A
C796        H799   1.085       .  S
C797        C798   1.383       .  A
C797        H800   1.083       .  S
C798       C3469   1.493       .  S
Zn801       O805   1.957       .  S
Zn801       O806   2.004       .  S
Zn801       O810   2.004       .  S
Zn801       O817   2.004       .  S
Zn802       O805   1.949       .  S
Zn802       O807   2.008       .  S
Zn802       O809   2.008       .  S
Zn802       O813   2.007       .  S
Zn803       O805   1.957       .  S
Zn803       O808   2.022       .  S
Zn803       O811   2.014       .  S
Zn803       O814   2.020       .  S
Zn804       O805   1.954       .  S
Zn804       O812   2.014       .  S
Zn804       O815   2.028       .  S
Zn804       O816   2.001       .  S
O806        C818   1.271       .  A
O807        C819   1.272       .  A
O808        C820   1.273       .  A
O809        C818   1.273       .  A
O810        C820   1.271       .  A
O811        C819   1.273       .  A
O812        C821   1.275       .  A
O813        C822   1.272       .  A
O814        C821   1.275       .  A
O815        C822   1.274       .  A
O816        C823   1.272       .  A
O817        C823   1.272       .  A
C818        C977   1.483       .  S
C819       C1061   1.489       .  S
C820       C1117   1.476       .  S
C821       C1033   1.489       .  S
C822       C1089   1.503       .  S
C823       C1012   1.485       .  S
N824        C828   1.362       .  A
N824        C825   1.362       .  A
N824       C1068   1.448       .  S
C825       C3245   1.497       .  S
C825        C826   1.383       .  A
C826        C827   1.377       .  A
C826        H829   1.084       .  S
C827        C828   1.384       .  A
C827        H830   1.083       .  S
C828        C949   1.500       .  S
N831        C835   1.361       .  A
N831        C832   1.361       .  A
N831       C1040   1.449       .  S
C832       C1733   1.496       .  S
C832        C833   1.383       .  A
C833        C834   1.378       .  A
C833        H836   1.082       .  S
C834        C835   1.383       .  A
C834        H837   1.083       .  S
C835        C928   1.496       .  S
N838        C842   1.377       .  A
N838        C839   1.375       .  A
N838       C1124   1.475       .  S
C839        C900   1.491       .  S
C839        C840   1.379       .  A
C840        C841   1.362       .  A
C840        H843   1.085       .  S
C841        C842   1.378       .  A
C841        H844   1.085       .  S
C842       C4477   1.491       .  S
N845        C849   1.361       .  A
N845        C846   1.360       .  A
N845       C1005   1.444       .  S
C846       C1768   1.499       .  S
C846        C847   1.383       .  A
C847        C848   1.378       .  A
C847        H850   1.084       .  S
C848        C849   1.384       .  A
C848        H851   1.085       .  S
C849       C4568   1.502       .  S
N852        C856   1.362       .  A
N852        C853   1.363       .  A
N852        C984   1.448       .  S
C853       C3280   1.498       .  S
C853        C854   1.384       .  A
C854        C855   1.374       .  A
C854        H857   1.083       .  S
C855        C856   1.382       .  A
C855        H858   1.082       .  S
C856       C4540   1.496       .  S
N859        C863   1.358       .  A
N859        C860   1.358       .  A
N859       C1096   1.448       .  S
C860       C3336   1.489       .  S
C860        C861   1.383       .  A
C861        C862   1.378       .  A
C861        H864   1.083       .  S
C862        C863   1.383       .  A
C862        H865   1.081       .  S
C863       C1796   1.492       .  S
Zn866       O870   1.960       .  S
Zn866       O871   2.028       .  S
Zn866       O875   2.022       .  S
Zn866       O882   2.015       .  S
Zn867       O870   1.962       .  S
Zn867       O872   2.015       .  S
Zn867       O874   2.036       .  S
Zn867       O878   2.034   1_655  S
Zn868       O870   1.966       .  S
Zn868       O873   2.026       .  S
Zn868       O876   2.013       .  S
Zn868       O879   2.034   1_655  S
Zn869       O870   1.964   1_455  S
Zn869       O877   2.027       .  S
Zn869       O880   2.033       .  S
Zn869       O881   2.019       .  S
O871        C883   1.274       .  A
O872        C884   1.274       .  A
O873        C885   1.275       .  A
O874        C883   1.276       .  A
O875        C885   1.274       .  A
O876        C884   1.273       .  A
O877        C886   1.273       .  A
O878        C887   1.275       .  A
O879        C886   1.275       .  A
O880        C887   1.276       .  A
O881        C888   1.274       .  A
O882        C888   1.274   1_655  A
C883        C921   1.511       .  S
C884       C1201   1.489       .  S
C885        C956   1.492       .  S
C886       C1145   1.484       .  S
C887       C1180   1.488       .  S
C888        C893   1.488       .  S
C889        C890   1.409       .  A
C889        C894   1.411       .  A
C889        C907   1.450       .  S
C890        C895   1.494       .  S
C890        C891   1.409       .  A
C891        C892   1.410       .  A
C891        C896   1.451       .  S
C892        C893   1.416       .  A
C892        C908   1.450       .  S
C893        C894   1.417       .  A
C894        C897   1.452       .  S
C895        C898   1.410       .  A
C895        C902   1.409       .  A
C896        N913   1.157       .  T
C897        N915   1.158   1_455  T
C898        C899   1.410       .  A
C898        C903   1.451       .  S
C899        C900   1.414       .  A
C899        C905   1.447       .  S
C900        C901   1.416       .  A
C901        C902   1.410       .  A
C901        C904   1.451       .  S
C902        C906   1.450       .  S
C903        N910   1.157   1_455  T
C904        N911   1.157       .  T
C905        N909   1.156       .  T
C906        N912   1.157       .  T
C907        N916   1.157       .  T
C908        N914   1.157       .  T
C917        C918   1.408       .  A
C917        C922   1.414       .  A
C917        C935   1.451       .  S
C918        C923   1.502       .  S
C918        C919   1.408       .  A
C919        C920   1.415       .  A
C919        C924   1.453       .  S
C920        C921   1.426       .  A
C920        C936   1.451       .  S
C921        C922   1.424       .  A
C922        C925   1.451       .  S
C923        C926   1.411       .  A
C923        C930   1.411       .  A
C924        N941   1.157       .  T
C925        N943   1.158       .  T
C926        C927   1.413       .  A
C926        C931   1.450       .  S
C927        C928   1.413       .  A
C927        C933   1.448       .  S
C928        C929   1.417       .  A
C929        C930   1.411       .  A
C929        C932   1.451       .  S
C930        C934   1.451       .  S
C931        N938   1.157       .  T
C932        N939   1.157       .  T
C933        N937   1.157       .  T
C934        N940   1.157       .  T
C935        N944   1.157       .  T
C936        N942   1.157       .  T
C945        C946   1.409       .  A
C945        C950   1.412       .  A
C945        C963   1.451       .  S
C946        C951   1.499       .  S
C946        C947   1.410       .  A
C947        C948   1.412       .  A
C947        C952   1.451       .  S
C948        C949   1.416       .  A
C948        C964   1.447       .  S
C949        C950   1.419       .  A
C950        C953   1.451       .  S
C951        C954   1.412       .  A
C951        C958   1.410       .  A
C952        N969   1.157       .  T
C953        N971   1.157       .  T
C954        C955   1.411       .  A
C954        C959   1.451       .  S
C955        C956   1.416       .  A
C955        C961   1.451       .  S
C956        C957   1.417       .  A
C957        C958   1.412       .  A
C957        C960   1.451       .  S
C958        C962   1.451       .  S
C959        N966   1.157       .  T
C960        N967   1.157       .  T
C961        N965   1.157       .  T
C962        N968   1.157       .  T
C963        N972   1.157       .  T
C964        N970   1.157       .  T
C973        C974   1.411       .  A
C973        C978   1.410       .  A
C973        C991   1.451       .  S
C974        C979   1.493       .  S
C974        C975   1.411       .  A
C975        C976   1.408       .  A
C975        C980   1.451       .  S
C976        C977   1.414       .  A
C976        C992   1.452       .  S
C977        C978   1.415       .  A
C978        C981   1.451       .  S
C979        C982   1.409       .  A
C979        C986   1.410       .  A
C980        N997   1.157       .  T
C981        N999   1.158       .  T
C982        C983   1.408       .  A
C982        C987   1.452       .  S
C983        C984   1.415       .  A
C983        C989   1.447       .  S
C984        C985   1.414       .  A
C985        C986   1.410       .  A
C985        C988   1.447       .  S
C986        C990   1.451       .  S
C987        N994   1.157       .  T
C988        N995   1.157       .  T
C989        N993   1.157       .  T
C990        N996   1.157       .  T
C991       N1000   1.157       .  T
C992        N998   1.157       .  T
C1001      C1002   1.408       .  A
C1001      C1006   1.406       .  A
C1001      C1019   1.451       .  S
C1002      C1007   1.486       .  S
C1002      C1003   1.407       .  A
C1003      C1004   1.406       .  A
C1003      C1008   1.451       .  S
C1004      C1005   1.414       .  A
C1004      C1020   1.448       .  S
C1005      C1006   1.413       .  A
C1006      C1009   1.448       .  S
C1007      C1010   1.408       .  A
C1007      C1014   1.407       .  A
C1008      N1025   1.157       .  T
C1009      N1027   1.157       .  T
C1010      C1011   1.408       .  A
C1010      C1015   1.452       .  S
C1011      C1012   1.417       .  A
C1011      C1017   1.451       .  S
C1012      C1013   1.419       .  A
C1013      C1014   1.407       .  A
C1013      C1016   1.452       .  S
C1014      C1018   1.452       .  S
C1015      N1022   1.157       .  T
C1016      N1023   1.158       .  T
C1017      N1021   1.157       .  T
C1018      N1024   1.157       .  T
C1019      N1028   1.157       .  T
C1020      N1026   1.157       .  T
C1029      C1030   1.408       .  A
C1029      C1034   1.407       .  A
C1029      C1047   1.452       .  S
C1030      C1035   1.492       .  S
C1030      C1031   1.409       .  A
C1031      C1032   1.412       .  A
C1031      C1036   1.451       .  S
C1032      C1033   1.418       .  A
C1032      C1048   1.451       .  S
C1033      C1034   1.416       .  A
C1034      C1037   1.449       .  S
C1035      C1038   1.408       .  A
C1035      C1042   1.408       .  A
C1036      N1053   1.157       .  T
C1037      N1055   1.156       .  T
C1038      C1039   1.407       .  A
C1038      C1043   1.452       .  S
C1039      C1040   1.414       .  A
C1039      C1045   1.447       .  S
C1040      C1041   1.415       .  A
C1041      C1042   1.411       .  A
C1041      C1044   1.447       .  S
C1042      C1046   1.451       .  S
C1043      N1050   1.157       .  T
C1044      N1051   1.157       .  T
C1045      N1049   1.157       .  T
C1046      N1052   1.157       .  T
C1047      N1056   1.157       .  T
C1048      N1054   1.158       .  T
C1057      C1058   1.409       .  A
C1057      C1062   1.408       .  A
C1057      C1075   1.451       .  S
C1058      C1063   1.492       .  S
C1058      C1059   1.408       .  A
C1059      C1060   1.411       .  A
C1059      C1064   1.451       .  S
C1060      C1061   1.418       .  A
C1060      C1076   1.451       .  S
C1061      C1062   1.417       .  A
C1062      C1065   1.452       .  S
C1063      C1066   1.408       .  A
C1063      C1070   1.409       .  A
C1064      N1081   1.157       .  T
C1065      N1083   1.157       .  T
C1066      C1067   1.409       .  A
C1066      C1071   1.451       .  S
C1067      C1068   1.414       .  A
C1067      C1073   1.448       .  S
C1068      C1069   1.415       .  A
C1069      C1070   1.408       .  A
C1069      C1072   1.448       .  S
C1070      C1074   1.451       .  S
C1071      N1078   1.157       .  T
C1072      N1079   1.157       .  T
C1073      N1077   1.157       .  T
C1074      N1080   1.157       .  T
C1075      N1084   1.157       .  T
C1076      N1082   1.158       .  T
C1085      C1086   1.406       .  A
C1085      C1090   1.410       .  A
C1085      C1103   1.452       .  S
C1086      C1091   1.493       .  S
C1086      C1087   1.407       .  A
C1087      C1088   1.412       .  A
C1087      C1092   1.452       .  S
C1088      C1089   1.423       .  A
C1088      C1104   1.449       .  S
C1089      C1090   1.425       .  A
C1090      C1093   1.452       .  S
C1091      C1094   1.408       .  A
C1091      C1098   1.408       .  A
C1092      N1109   1.157       .  T
C1093      N1111   1.158       .  T
C1094      C1095   1.409       .  A
C1094      C1099   1.451       .  S
C1095      C1096   1.415       .  A
C1095      C1101   1.447       .  S
C1096      C1097   1.414       .  A
C1097      C1098   1.409       .  A
C1097      C1100   1.447       .  S
C1098      C1102   1.451       .  S
C1099      N1106   1.157       .  T
C1100      N1107   1.157       .  T
C1101      N1105   1.157       .  T
C1102      N1108   1.157       .  T
C1103      N1112   1.157       .  T
C1104      N1110   1.157       .  T
C1113      C1114   1.413       .  A
C1113      C1118   1.410       .  A
C1113      C1131   1.448       .  S
C1114      C1119   1.496       .  S
C1114      C1115   1.414       .  A
C1115      C1116   1.410       .  A
C1115      C1120   1.451       .  S
C1116      C1117   1.411       .  A
C1116      C1132   1.451       .  S
C1117      C1118   1.408       .  A
C1118      C1121   1.451       .  S
C1119      C1122   1.413       .  A
C1119      C1126   1.413       .  A
C1120      N1137   1.157       .  T
C1121      N1139   1.157       .  T
C1122      C1123   1.408   1_655  A
C1122      C1127   1.449       .  S
C1123      C1124   1.411       .  A
C1123      C1129   1.446       .  S
C1124      C1125   1.407       .  A
C1125      C1126   1.410   1_455  A
C1125      C1128   1.444       .  S
C1126      C1130   1.448       .  S
C1127      N1134   1.157       .  T
C1128      N1135   1.157       .  T
C1129      N1133   1.157       .  T
C1130      N1136   1.157       .  T
C1131      N1140   1.156       .  T
C1132      N1138   1.157       .  T
C1141      C1142   1.411       .  A
C1141      C1146   1.413       .  A
C1141      C1159   1.450       .  S
C1142      C1147   1.498       .  S
C1142      C1143   1.412       .  A
C1143      C1144   1.412       .  A
C1143      C1148   1.450       .  S
C1144      C1145   1.412       .  A
C1144      C1160   1.450       .  S
C1145      C1146   1.413       .  A
C1146      C1149   1.451       .  S
C1147      C1150   1.411       .  A
C1147      C1154   1.410       .  A
C1148      N1165   1.157       .  T
C1149      N1167   1.157       .  T
C1150      C1151   1.413       .  A
C1150      C1155   1.450       .  S
C1151      C1152   1.413       .  A
C1151      C1157   1.448       .  S
C1152      C1153   1.416       .  A
C1153      C1154   1.411       .  A
C1153      C1156   1.451       .  S
C1154      C1158   1.450       .  S
C1155      N1162   1.157       .  T
C1156      N1163   1.157       .  T
C1157      N1161   1.157       .  T
C1158      N1164   1.157       .  T
C1159      N1168   1.157       .  T
C1160      N1166   1.157       .  T
C1169      C1170   1.411       .  A
C1169      C1174   1.415       .  A
C1169      C1187   1.450       .  S
C1170      C1175   1.504       .  S
C1170      C1171   1.410       .  A
C1171      C1172   1.413       .  A
C1171      C1176   1.451       .  S
C1172      C1173   1.418       .  A
C1172      C1188   1.451       .  S
C1173      C1174   1.415       .  A
C1174      C1177   1.448       .  S
C1175      C1178   1.412       .  A
C1175      C1182   1.413       .  A
C1176      N1193   1.157       .  T
C1177      N1195   1.157       .  T
C1178      C1179   1.415       .  A
C1178      C1183   1.450       .  S
C1179      C1180   1.414       .  A
C1179      C1185   1.451       .  S
C1180      C1181   1.412       .  A
C1181      C1182   1.413       .  A
C1181      C1184   1.450       .  S
C1182      C1186   1.450       .  S
C1183      N1190   1.157       .  T
C1184      N1191   1.157       .  T
C1185      N1189   1.157       .  T
C1186      N1192   1.157       .  T
C1187      N1196   1.157       .  T
C1188      N1194   1.157       .  T
C1197      C1198   1.410       .  A
C1197      C1202   1.411       .  A
C1197      C1215   1.451       .  S
C1198      C1203   1.494       .  S
C1198      C1199   1.410       .  A
C1199      C1200   1.409       .  A
C1199      C1204   1.451       .  S
C1200      C1201   1.416       .  A
C1200      C1216   1.452       .  S
C1201      C1202   1.417       .  A
C1202      C1205   1.451       .  S
C1203      C1206   1.410       .  A
C1203      C1210   1.410       .  A
C1204      N1221   1.157       .  T
C1205      N1223   1.157   1_655  T
C1206      C1207   1.409       .  A
C1206      C1211   1.451       .  S
C1207      C1208   1.413       .  A
C1207      C1213   1.448       .  S
C1208      C1209   1.416       .  A
C1209      C1210   1.411       .  A
C1209      C1212   1.451       .  S
C1210      C1214   1.451       .  S
C1211      N1218   1.157       .  T
C1212      N1219   1.157       .  T
C1213      N1217   1.157       .  T
C1214      N1220   1.157       .  T
C1215      N1224   1.157       .  T
C1216      N1222   1.157       .  T
C1225      C1226   1.414       .  A
C1225      C1230   1.409       .  A
C1225      C1243   1.451       .  S
C1226      C1231   1.495       .  S
C1226      C1227   1.411       .  A
C1227      C1228   1.409       .  A
C1227      C1232   1.451       .  S
C1228      C1229   1.412       .  A
C1228      C1244   1.451       .  S
C1229      C1230   1.410       .  A
C1230      C1233   1.450       .  S
C1231      C1234   1.410       .  A
C1231      C1238   1.410       .  A
C1232      N1249   1.157       .  T
C1233      N1251   1.157       .  T
C1234      C1235   1.407       .  A
C1234      C1239   1.452       .  S
C1235      C1236   1.413       .  A
C1235      C1241   1.448       .  S
C1236      C1237   1.413       .  A
C1237      C1238   1.410       .  A
C1237      C1240   1.448       .  S
C1238      C1242   1.450       .  S
C1239      N1246   1.157       .  T
C1240      N1247   1.157       .  T
C1241      N1245   1.157       .  T
C1242      N1248   1.157       .  T
C1243      N1252   1.157       .  T
C1244      N1250   1.157       .  T
C1253      C1254   1.410       .  A
C1253      C1258   1.411       .  A
C1253      C1271   1.451       .  S
C1254      C1259   1.489       .  S
C1254      C1255   1.409       .  A
C1255      C1256   1.406       .  A
C1255      C1260   1.451       .  S
C1256      C1257   1.412       .  A
C1256      C1272   1.450       .  S
C1257      C1258   1.413       .  A
C1258      C1261   1.450       .  S
C1259      C1262   1.407       .  A
C1259      C1266   1.409   1_545  A
C1260      N1277   1.157       .  T
C1261      N1279   1.157       .  T
C1262      C1263   1.406   1_545  A
C1262      C1267   1.452       .  S
C1263      C1264   1.414       .  A
C1263      C1269   1.448       .  S
C1264      C1265   1.413       .  A
C1265      C1266   1.409       .  A
C1265      C1268   1.448       .  S
C1266      C1270   1.450   1_565  S
C1267      N1274   1.157       .  T
C1268      N1275   1.157       .  T
C1269      N1273   1.157       .  T
C1270      N1276   1.157       .  T
C1271      N1280   1.157       .  T
C1272      N1278   1.157       .  T
C1281      C1282   1.407       .  A
C1281      C1286   1.405   1_455  A
C1281      C1299   1.452       .  S
C1282      C1287   1.485       .  S
C1282      C1283   1.406   1_455  A
C1283      C1284   1.408       .  A
C1283      C1288   1.451   1_655  S
C1284      C1285   1.416       .  A
C1284      C1300   1.447       .  S
C1285      C1286   1.414       .  A
C1286      C1289   1.447       .  S
C1287      C1290   1.410       .  A
C1287      C1294   1.409       .  A
C1288      N1305   1.157       .  T
C1289      N1307   1.157       .  T
C1290      C1291   1.406       .  A
C1290      C1295   1.452       .  S
C1291      C1292   1.413       .  A
C1291      C1297   1.452       .  S
C1292      C1293   1.413       .  A
C1293      C1294   1.408       .  A
C1293      C1296   1.451       .  S
C1294      C1298   1.451       .  S
C1295      N1302   1.157       .  T
C1296      N1303   1.157       .  T
C1297      N1301   1.157       .  T
C1298      N1304   1.157       .  T
C1299      N1308   1.157       .  T
C1300      N1306   1.157       .  T
C1309      C1310   1.407       .  A
C1309      C1314   1.406       .  A
C1309      C1327   1.451       .  S
C1310      C1315   1.487       .  S
C1310      C1311   1.408       .  A
C1311      C1312   1.407       .  A
C1311      C1316   1.452       .  S
C1312      C1313   1.414       .  A
C1312      C1328   1.447       .  S
C1313      C1314   1.415       .  A
C1314      C1317   1.447       .  S
C1315      C1318   1.410       .  A
C1315      C1322   1.410       .  A
C1316      N1333   1.157       .  T
C1317      N1335   1.157       .  T
C1318      C1319   1.409       .  A
C1318      C1323   1.451       .  S
C1319      C1320   1.414       .  A
C1319      C1325   1.451       .  S
C1320      C1321   1.412       .  A
C1321      C1322   1.404       .  A
C1321      C1324   1.450       .  S
C1322      C1326   1.452       .  S
C1323      N1330   1.157       .  T
C1324      N1331   1.157       .  T
C1325      N1329   1.157       .  T
C1326      N1332   1.157       .  T
C1327      N1336   1.157       .  T
C1328      N1334   1.157       .  T
C1337      C1338   1.409       .  A
C1337      C1342   1.408       .  A
C1337      C1355   1.452       .  S
C1338      C1343   1.489       .  S
C1338      C1339   1.409       .  A
C1339      C1340   1.409       .  A
C1339      C1344   1.451       .  S
C1340      C1341   1.415       .  A
C1340      C1356   1.451       .  S
C1341      C1342   1.415       .  A
C1342      C1345   1.450       .  S
C1343      C1346   1.407   1_554  A
C1343      C1350   1.408   1_554  A
C1344      N1361   1.157       .  T
C1345      N1363   1.157       .  T
C1346      C1347   1.407       .  A
C1346      C1351   1.452   1_556  S
C1347      C1348   1.414       .  A
C1347      C1353   1.447       .  S
C1348      C1349   1.414       .  A
C1349      C1350   1.409       .  A
C1349      C1352   1.448       .  S
C1350      C1354   1.450       .  S
C1351      N1358   1.157       .  T
C1352      N1359   1.157       .  T
C1353      N1357   1.157       .  T
C1354      N1360   1.157   1_556  T
C1355      N1364   1.157       .  T
C1356      N1362   1.157       .  T
C1365      C1366   1.409       .  A
C1365      C1370   1.411       .  A
C1365      C1383   1.451       .  S
C1366      C1371   1.492       .  S
C1366      C1367   1.409       .  A
C1367      C1368   1.408       .  A
C1367      C1372   1.451       .  S
C1368      C1369   1.416       .  A
C1368      C1384   1.452       .  S
C1369      C1370   1.417       .  A
C1370      C1373   1.449       .  S
C1371      C1374   1.408       .  A
C1371      C1378   1.408       .  A
C1372      N1389   1.157       .  T
C1373      N1391   1.157       .  T
C1374      C1375   1.410       .  A
C1374      C1379   1.451       .  S
C1375      C1376   1.415       .  A
C1375      C1381   1.447       .  S
C1376      C1377   1.416       .  A
C1377      C1378   1.408       .  A
C1377      C1380   1.448       .  S
C1378      C1382   1.452       .  S
C1379      N1386   1.157       .  T
C1380      N1387   1.157       .  T
C1381      N1385   1.157       .  T
C1382      N1388   1.157       .  T
C1383      N1392   1.157       .  T
C1384      N1390   1.157       .  T
C1393      C1394   1.413       .  A
C1393      C1398   1.414       .  A
C1393      C1411   1.450       .  S
C1394      C1399   1.501       .  S
C1394      C1395   1.413       .  A
C1395      C1396   1.408       .  A
C1395      C1400   1.451       .  S
C1396      C1397   1.410       .  A
C1396      C1412   1.450       .  S
C1397      C1398   1.414       .  A
C1398      C1401   1.451       .  S
C1399      C1402   1.411       .  A
C1399      C1406   1.410       .  A
C1400      N1417   1.157       .  T
C1401      N1419   1.157   1_565  T
C1402      C1403   1.411       .  A
C1402      C1407   1.452       .  S
C1403      C1404   1.415       .  A
C1403      C1409   1.447       .  S
C1404      C1405   1.418       .  A
C1405      C1406   1.412       .  A
C1405      C1408   1.451       .  S
C1406      C1410   1.450       .  S
C1407      N1414   1.157       .  T
C1408      N1415   1.157       .  T
C1409      N1413   1.157       .  T
C1410      N1416   1.157       .  T
C1411      N1420   1.157       .  T
C1412      N1418   1.157       .  T
C1421      C1422   1.411       .  A
C1421      C1426   1.413       .  A
C1421      C1439   1.451       .  S
C1422      C1427   1.502       .  S
C1422      C1423   1.411       .  A
C1423      C1424   1.412       .  A
C1423      C1428   1.451       .  S
C1424      C1425   1.417       .  A
C1424      C1440   1.451       .  S
C1425      C1426   1.415       .  A
C1426      C1429   1.448       .  S
C1427      C1430   1.411       .  A
C1427      C1434   1.412       .  A
C1428      N1445   1.157       .  T
C1429      N1447   1.157       .  T
C1430      C1431   1.413       .  A
C1430      C1435   1.451       .  S
C1431      C1432   1.417       .  A
C1431      C1437   1.451       .  S
C1432      C1433   1.416       .  A
C1433      C1434   1.413       .  A
C1433      C1436   1.452       .  S
C1434      C1438   1.450       .  S
C1435      N1442   1.157       .  T
C1436      N1443   1.158       .  T
C1437      N1441   1.157       .  T
C1438      N1444   1.157       .  T
C1439      N1448   1.157       .  T
C1440      N1446   1.157       .  T
C1449      C1450   1.405       .  A
C1449      C1454   1.412       .  A
C1449      C1467   1.454       .  S
C1450      C1455   1.495       .  S
C1450      C1451   1.406       .  A
C1451      C1452   1.412       .  A
C1451      C1456   1.452       .  S
C1452      C1453   1.428       .  A
C1452      C1468   1.452       .  S
C1453      C1454   1.430       .  A
C1454      C1457   1.452       .  S
C1455      C1458   1.409       .  A
C1455      C1462   1.409       .  A
C1456      N1473   1.157       .  T
C1457      N1475   1.158       .  T
C1458      C1459   1.409       .  A
C1458      C1463   1.451       .  S
C1459      C1460   1.417       .  A
C1459      C1465   1.451       .  S
C1460      C1461   1.413       .  A
C1461      C1462   1.409       .  A
C1461      C1464   1.448       .  S
C1462      C1466   1.451       .  S
C1463      N1470   1.157       .  T
C1464      N1471   1.157       .  T
C1465      N1469   1.157       .  T
C1466      N1472   1.157       .  T
C1467      N1476   1.157       .  T
C1468      N1474   1.158       .  T
C1477      C1478   1.411       .  A
C1477      C1482   1.412       .  A
C1477      C1495   1.451       .  S
C1478      C1483   1.501       .  S
C1478      C1479   1.411       .  A
C1479      C1480   1.413       .  A
C1479      C1484   1.451       .  S
C1480      C1481   1.414       .  A
C1480      C1496   1.448       .  S
C1481      C1482   1.417       .  A
C1482      C1485   1.451       .  S
C1483      C1486   1.412       .  A
C1483      C1490   1.409       .  A
C1484      N1501   1.157       .  T
C1485      N1503   1.157       .  T
C1486      C1487   1.414       .  A
C1486      C1491   1.451       .  S
C1487      C1488   1.418       .  A
C1487      C1493   1.451       .  S
C1488      C1489   1.418       .  A
C1489      C1490   1.412       .  A
C1489      C1492   1.449       .  S
C1490      C1494   1.452       .  S
C1491      N1498   1.157       .  T
C1492      N1499   1.157   1_545  T
C1493      N1497   1.158       .  T
C1494      N1500   1.157       .  T
C1495      N1504   1.157       .  T
C1496      N1502   1.157       .  T
C1505      C1506   1.411       .  A
C1505      C1510   1.410       .  A
C1505      C1523   1.450       .  S
C1506      C1511   1.497       .  S
C1506      C1507   1.410       .  A
C1507      C1508   1.410       .  A
C1507      C1512   1.450       .  S
C1508      C1509   1.416       .  A
C1508      C1524   1.452       .  S
C1509      C1510   1.412       .  A
C1510      C1513   1.449       .  S
C1511      C1514   1.410       .  A
C1511      C1518   1.408       .  A
C1512      N1529   1.157       .  T
C1513      N1531   1.157       .  T
C1514      C1515   1.414       .  A
C1514      C1519   1.451       .  S
C1515      C1516   1.420       .  A
C1515      C1521   1.451       .  S
C1516      C1517   1.421       .  A
C1517      C1518   1.411       .  A
C1517      C1520   1.450       .  S
C1518      C1522   1.452       .  S
C1519      N1526   1.157       .  T
C1520      N1527   1.157       .  T
C1521      N1525   1.157       .  T
C1522      N1528   1.157       .  T
C1523      N1532   1.157       .  T
C1524      N1530   1.157       .  T
C1533      C1534   1.409       .  A
C1533      C1538   1.411       .  A
C1533      C1551   1.452       .  S
C1534      C1539   1.495       .  S
C1534      C1535   1.408       .  A
C1535      C1536   1.411       .  A
C1535      C1540   1.451       .  S
C1536      C1537   1.419       .  A
C1536      C1552   1.451       .  S
C1537      C1538   1.415       .  A
C1538      C1541   1.447       .  S
C1539      C1542   1.412       .  A
C1539      C1546   1.410       .  A
C1540      N1557   1.157       .  T
C1541      N1559   1.157       .  T
C1542      C1543   1.411       .  A
C1542      C1547   1.450       .  S
C1543      C1544   1.413       .  A
C1543      C1549   1.452       .  S
C1544      C1545   1.412       .  A
C1545      C1546   1.410       .  A
C1545      C1548   1.449       .  S
C1546      C1550   1.451       .  S
C1547      N1554   1.157       .  T
C1548      N1555   1.157       .  T
C1549      N1553   1.157       .  T
C1550      N1556   1.157       .  T
C1551      N1560   1.157       .  T
C1552      N1558   1.157       .  T
C1561      C1562   1.409       .  A
C1561      C1566   1.406       .  A
C1561      C1579   1.452       .  S
C1562      C1567   1.490       .  S
C1562      C1563   1.409       .  A
C1563      C1564   1.408       .  A
C1563      C1568   1.451       .  S
C1564      C1565   1.413       .  A
C1564      C1580   1.448       .  S
C1565      C1566   1.413       .  A
C1566      C1569   1.448       .  S
C1567      C1570   1.410       .  A
C1567      C1574   1.411       .  A
C1568      N1585   1.157       .  T
C1569      N1587   1.157       .  T
C1570      C1571   1.409       .  A
C1570      C1575   1.452       .  S
C1571      C1572   1.416       .  A
C1571      C1577   1.452       .  S
C1572      C1573   1.412       .  A
C1573      C1574   1.407       .  A
C1573      C1576   1.449       .  S
C1574      C1578   1.452       .  S
C1575      N1582   1.157       .  T
C1576      N1583   1.157       .  T
C1577      N1581   1.158       .  T
C1578      N1584   1.157       .  T
C1579      N1588   1.157       .  T
C1580      N1586   1.157       .  T
C1589      C1590   1.411       .  A
C1589      C1594   1.409       .  A
C1589      C1607   1.451       .  S
C1590      C1595   1.492       .  S
C1590      C1591   1.410       .  A
C1591      C1592   1.408       .  A
C1591      C1596   1.452       .  S
C1592      C1593   1.414       .  A
C1592      C1608   1.451       .  S
C1593      C1594   1.415       .  A
C1594      C1597   1.451       .  S
C1595      C1598   1.410       .  A
C1595      C1602   1.409       .  A
C1596      N1613   1.157       .  T
C1597      N1615   1.157       .  T
C1598      C1599   1.408       .  A
C1598      C1603   1.451       .  S
C1599      C1600   1.414       .  A
C1599      C1605   1.448       .  S
C1600      C1601   1.415       .  A
C1601      C1602   1.408       .  A
C1601      C1604   1.448       .  S
C1602      C1606   1.451       .  S
C1603      N1610   1.157       .  T
C1604      N1611   1.157       .  T
C1605      N1609   1.157       .  T
C1606      N1612   1.157       .  T
C1607      N1616   1.157       .  T
C1608      N1614   1.157       .  T
C1617      C1618   1.410       .  A
C1617      C1622   1.409       .  A
C1617      C1635   1.451       .  S
C1618      C1623   1.493       .  S
C1618      C1619   1.410       .  A
C1619      C1620   1.410       .  A
C1619      C1624   1.451       .  S
C1620      C1621   1.417       .  A
C1620      C1636   1.452       .  S
C1621      C1622   1.415       .  A
C1622      C1625   1.450       .  S
C1623      C1626   1.410       .  A
C1623      C1630   1.409       .  A
C1624      N1641   1.157       .  T
C1625      N1643   1.157       .  T
C1626      C1627   1.409       .  A
C1626      C1631   1.451       .  S
C1627      C1628   1.414       .  A
C1627      C1633   1.448       .  S
C1628      C1629   1.414       .  A
C1629      C1630   1.408       .  A
C1629      C1632   1.448       .  S
C1630      C1634   1.451       .  S
C1631      N1638   1.157       .  T
C1632      N1639   1.157       .  T
C1633      N1637   1.157       .  T
C1634      N1640   1.157       .  T
C1635      N1644   1.157       .  T
C1636      N1642   1.158       .  T
C1645      C1646   1.407       .  A
C1645      C1650   1.412       .  A
C1645      C1663   1.453       .  S
C1646      C1651   1.494       .  S
C1646      C1647   1.407       .  A
C1647      C1648   1.412       .  A
C1647      C1652   1.452       .  S
C1648      C1649   1.425       .  A
C1648      C1664   1.452       .  S
C1649      C1650   1.423       .  A
C1650      C1653   1.449       .  S
C1651      C1654   1.408       .  A
C1651      C1658   1.409       .  A
C1652      N1669   1.157       .  T
C1653      N1671   1.157       .  T
C1654      C1655   1.409       .  A
C1654      C1659   1.451       .  S
C1655      C1656   1.415       .  A
C1655      C1661   1.448       .  S
C1656      C1657   1.414       .  A
C1657      C1658   1.409       .  A
C1657      C1660   1.448       .  S
C1658      C1662   1.451       .  S
C1659      N1666   1.157       .  T
C1660      N1667   1.157       .  T
C1661      N1665   1.157       .  T
C1662      N1668   1.157       .  T
C1663      N1672   1.157       .  T
C1664      N1670   1.158       .  T
C1673      C1674   1.407       .  A
C1673      C1678   1.410       .  A
C1673      C1691   1.453       .  S
C1674      C1679   1.495       .  S
C1674      C1675   1.407       .  A
C1675      C1676   1.412       .  A
C1675      C1680   1.453       .  S
C1676      C1677   1.425       .  A
C1676      C1692   1.451       .  S
C1677      C1678   1.424       .  A
C1678      C1681   1.452       .  S
C1679      C1682   1.409   1_565  A
C1679      C1686   1.409   1_565  A
C1680      N1697   1.157       .  T
C1681      N1699   1.158       .  T
C1682      C1683   1.410       .  A
C1682      C1687   1.451   1_545  S
C1683      C1684   1.414       .  A
C1683      C1689   1.447       .  S
C1684      C1685   1.414       .  A
C1685      C1686   1.409       .  A
C1685      C1688   1.447       .  S
C1686      C1690   1.451   1_545  S
C1687      N1694   1.157       .  T
C1688      N1695   1.157       .  T
C1689      N1693   1.157       .  T
C1690      N1696   1.157       .  T
C1691      N1700   1.157       .  T
C1692      N1698   1.157       .  T
C1701      C1702   1.406       .  A
C1701      C1706   1.410       .  A
C1701      C1719   1.452       .  S
C1702      C1707   1.494       .  S
C1702      C1703   1.408       .  A
C1703      C1704   1.411       .  A
C1703      C1708   1.452       .  S
C1704      C1705   1.424       .  A
C1704      C1720   1.451       .  S
C1705      C1706   1.425       .  A
C1706      C1709   1.452       .  S
C1707      C1710   1.409       .  A
C1707      C1714   1.408       .  A
C1708      N1725   1.157       .  T
C1709      N1727   1.158       .  T
C1710      C1711   1.409       .  A
C1710      C1715   1.452       .  S
C1711      C1712   1.414       .  A
C1711      C1717   1.447       .  S
C1712      C1713   1.415       .  A
C1713      C1714   1.409       .  A
C1713      C1716   1.447       .  S
C1714      C1718   1.451       .  S
C1715      N1722   1.157       .  T
C1716      N1723   1.157       .  T
C1717      N1721   1.157       .  T
C1718      N1724   1.157       .  T
C1719      N1728   1.157       .  T
C1720      N1726   1.157       .  T
C1729      C1730   1.409       .  A
C1729      C1734   1.411       .  A
C1729      C1747   1.451       .  S
C1730      C1735   1.497       .  S
C1730      C1731   1.410       .  A
C1731      C1732   1.411       .  A
C1731      C1736   1.451       .  S
C1732      C1733   1.414       .  A
C1732      C1748   1.448       .  S
C1733      C1734   1.418       .  A
C1734      C1737   1.451       .  S
C1735      C1738   1.411       .  A
C1735      C1742   1.411       .  A
C1736      N1753   1.157       .  T
C1737      N1755   1.157       .  T
C1738      C1739   1.410       .  A
C1738      C1743   1.451       .  S
C1739      C1740   1.412       .  A
C1739      C1745   1.448       .  S
C1740      C1741   1.415       .  A
C1741      C1742   1.412       .  A
C1741      C1744   1.452       .  S
C1742      C1746   1.450       .  S
C1743      N1750   1.157       .  T
C1744      N1751   1.158       .  T
C1745      N1749   1.156       .  T
C1746      N1752   1.157       .  T
C1747      N1756   1.157       .  T
C1748      N1754   1.157       .  T
C1757      C1758   1.410       .  A
C1757      C1762   1.413       .  A
C1757      C1775   1.451       .  S
C1758      C1763   1.499       .  S
C1758      C1759   1.409       .  A
C1759      C1760   1.411       .  A
C1759      C1764   1.451       .  S
C1760      C1761   1.418       .  A
C1760      C1776   1.448       .  S
C1761      C1762   1.421       .  A
C1762      C1765   1.452       .  S
C1763      C1766   1.410       .  A
C1763      C1770   1.410       .  A
C1764      N1781   1.157       .  T
C1765      N1783   1.158       .  T
C1766      C1767   1.412       .  A
C1766      C1771   1.451       .  S
C1767      C1768   1.418       .  A
C1767      C1773   1.451       .  S
C1768      C1769   1.415       .  A
C1769      C1770   1.412       .  A
C1769      C1772   1.448       .  S
C1770      C1774   1.451       .  S
C1771      N1778   1.157       .  T
C1772      N1779   1.157       .  T
C1773      N1777   1.157       .  T
C1774      N1780   1.157       .  T
C1775      N1784   1.157       .  T
C1776      N1782   1.156       .  T
C1785      C1786   1.410       .  A
C1785      C1790   1.410       .  A
C1785      C1803   1.452       .  S
C1786      C1791   1.497       .  S
C1786      C1787   1.410       .  A
C1787      C1788   1.412       .  A
C1787      C1792   1.451       .  S
C1788      C1789   1.419       .  A
C1788      C1804   1.451       .  S
C1789      C1790   1.419       .  A
C1790      C1793   1.450       .  S
C1791      C1794   1.411       .  A
C1791      C1798   1.411       .  A
C1792      N1809   1.157       .  T
C1793      N1811   1.157       .  T
C1794      C1795   1.411       .  A
C1794      C1799   1.451       .  S
C1795      C1796   1.415       .  A
C1795      C1801   1.451       .  S
C1796      C1797   1.413       .  A
C1797      C1798   1.409       .  A
C1797      C1800   1.448       .  S
C1798      C1802   1.451       .  S
C1799      N1806   1.157       .  T
C1800      N1807   1.157       .  T
C1801      N1805   1.157       .  T
C1802      N1808   1.157       .  T
C1803      N1812   1.157       .  T
C1804      N1810   1.157       .  T
C1813      C1814   1.408       .  A
C1813      C1818   1.410       .  A
C1813      C1831   1.452       .  S
C1814      C1819   1.490       .  S
C1814      C1815   1.408       .  A
C1815      C1816   1.408       .  A
C1815      C1820   1.452       .  S
C1816      C1817   1.419       .  A
C1816      C1832   1.452       .  S
C1817      C1818   1.419       .  A
C1818      C1821   1.452       .  S
C1819      C1822   1.409       .  A
C1819      C1826   1.409       .  A
C1820      N1837   1.157       .  T
C1821      N1839   1.158       .  T
C1822      C1823   1.408       .  A
C1822      C1827   1.451       .  S
C1823      C1824   1.415       .  A
C1823      C1829   1.450       .  S
C1824      C1825   1.412       .  A
C1825      C1826   1.409       .  A
C1825      C1828   1.447       .  S
C1826      C1830   1.451       .  S
C1827      N1834   1.157       .  T
C1828      N1835   1.157       .  T
C1829      N1833   1.157       .  T
C1830      N1836   1.157       .  T
C1831      N1840   1.157       .  T
C1832      N1838   1.158       .  T
C1841      C1842   1.409       .  A
C1841      C1846   1.411       .  A
C1841      C1859   1.451       .  S
C1842      C1847   1.498       .  S
C1842      C1843   1.409       .  A
C1843      C1844   1.412       .  A
C1843      C1848   1.451       .  S
C1844      C1845   1.414       .  A
C1844      C1860   1.448       .  S
C1845      C1846   1.417       .  A
C1846      C1849   1.451       .  S
C1847      C1850   1.408       .  A
C1847      C1854   1.409       .  A
C1848      N1865   1.157       .  T
C1849      N1867   1.157       .  T
C1850      C1851   1.412       .  A
C1850      C1855   1.452       .  S
C1851      C1852   1.421       .  A
C1851      C1857   1.451       .  S
C1852      C1853   1.419       .  A
C1853      C1854   1.413       .  A
C1853      C1856   1.451       .  S
C1854      C1858   1.451       .  S
C1855      N1862   1.157       .  T
C1856      N1863   1.158       .  T
C1857      N1861   1.157       .  T
C1858      N1864   1.157       .  T
C1859      N1868   1.157       .  T
C1860      N1866   1.157       .  T
C1869      C1870   1.408       .  A
C1869      C1874   1.412       .  A
C1869      C1887   1.452       .  S
C1870      C1875   1.499       .  S
C1870      C1871   1.408       .  A
C1871      C1872   1.413       .  A
C1871      C1876   1.452       .  S
C1872      C1873   1.424       .  A
C1872      C1888   1.451       .  S
C1873      C1874   1.425       .  A
C1874      C1877   1.452       .  S
C1875      C1878   1.410       .  A
C1875      C1882   1.410       .  A
C1876      N1893   1.157       .  T
C1877      N1895   1.158       .  T
C1878      C1879   1.412       .  A
C1878      C1883   1.451       .  S
C1879      C1880   1.414       .  A
C1879      C1885   1.448       .  S
C1880      C1881   1.417       .  A
C1881      C1882   1.411       .  A
C1881      C1884   1.451       .  S
C1882      C1886   1.451       .  S
C1883      N1890   1.157       .  T
C1884      N1891   1.157       .  T
C1885      N1889   1.157       .  T
C1886      N1892   1.157       .  T
C1887      N1896   1.157       .  T
C1888      N1894   1.157       .  T
C1897      C1898   1.412       .  A
C1897      C1902   1.409       .  A
C1897      C1915   1.451       .  S
C1898      C1903   1.499       .  S
C1898      C1899   1.414       .  A
C1899      C1900   1.412       .  A
C1899      C1904   1.451       .  S
C1900      C1901   1.411       .  A
C1900      C1916   1.450       .  S
C1901      C1902   1.413       .  A
C1902      C1905   1.451       .  S
C1903      C1906   1.411       .  A
C1903      C1910   1.412       .  A
C1904      N1921   1.157       .  T
C1905      N1923   1.157       .  T
C1906      C1907   1.411       .  A
C1906      C1911   1.451       .  S
C1907      C1908   1.417       .  A
C1907      C1913   1.451       .  S
C1908      C1909   1.413       .  A
C1909      C1910   1.411       .  A
C1909      C1912   1.448       .  S
C1910      C1914   1.451       .  S
C1911      N1918   1.157       .  T
C1912      N1919   1.157       .  T
C1913      N1917   1.157       .  T
C1914      N1920   1.157       .  T
C1915      N1924   1.157       .  T
C1916      N1922   1.157       .  T
C1925      C1926   1.409       .  A
C1925      C1930   1.407       .  A
C1925      C1943   1.452       .  S
C1926      C1931   1.495       .  S
C1926      C1927   1.410       .  A
C1927      C1928   1.412       .  A
C1927      C1932   1.451       .  S
C1928      C1929   1.416       .  A
C1928      C1944   1.448       .  S
C1929      C1930   1.418       .  A
C1930      C1933   1.452       .  S
C1931      C1934   1.412       .  A
C1931      C1938   1.412       .  A
C1932      N1949   1.157       .  T
C1933      N1951   1.157       .  T
C1934      C1935   1.410       .  A
C1934      C1939   1.451       .  S
C1935      C1936   1.413       .  A
C1935      C1941   1.450       .  S
C1936      C1937   1.411       .  A
C1937      C1938   1.407       .  A
C1937      C1940   1.451       .  S
C1938      C1942   1.451       .  S
C1939      N1946   1.157       .  T
C1940      N1947   1.157       .  T
C1941      N1945   1.157       .  T
C1942      N1948   1.157       .  T
C1943      N1952   1.157       .  T
C1944      N1950   1.157       .  T
C1953      C1954   1.411       .  A
C1953      C1958   1.413       .  A
C1953      C1971   1.451       .  S
C1954      C1959   1.506       .  S
C1954      C1955   1.412       .  A
C1955      C1956   1.415       .  A
C1955      C1960   1.450       .  S
C1956      C1957   1.415       .  A
C1956      C1972   1.448       .  S
C1957      C1958   1.419       .  A
C1958      C1961   1.451       .  S
C1959      C1962   1.413       .  A
C1959      C1966   1.414       .  A
C1960      N1977   1.157       .  T
C1961      N1979   1.157       .  T
C1962      C1963   1.414       .  A
C1962      C1967   1.450       .  S
C1963      C1964   1.414       .  A
C1963      C1969   1.449       .  S
C1964      C1965   1.414       .  A
C1965      C1966   1.415       .  A
C1965      C1968   1.451       .  S
C1966      C1970   1.451       .  S
C1967      N1974   1.157       .  T
C1968      N1975   1.157   1_565  T
C1969      N1973   1.157       .  T
C1970      N1976   1.157       .  T
C1971      N1980   1.157       .  T
C1972      N1978   1.157       .  T
C1981      C1982   1.406       .  A
C1981      C1986   1.410       .  A
C1981      C1999   1.453       .  S
C1982      C1987   1.495       .  S
C1982      C1983   1.408       .  A
C1983      C1984   1.413       .  A
C1983      C1988   1.453       .  S
C1984      C1985   1.426       .  A
C1984      C2000   1.451       .  S
C1985      C1986   1.425       .  A
C1986      C1989   1.451       .  S
C1987      C1990   1.409       .  A
C1987      C1994   1.410       .  A
C1988      N2005   1.157       .  T
C1989      N2007   1.157       .  T
C1990      C1991   1.409       .  A
C1990      C1995   1.451       .  S
C1991      C1992   1.415       .  A
C1991      C1997   1.448       .  S
C1992      C1993   1.413       .  A
C1993      C1994   1.410       .  A
C1993      C1996   1.448       .  S
C1994      C1998   1.451       .  S
C1995      N2002   1.157       .  T
C1996      N2003   1.157       .  T
C1997      N2001   1.157       .  T
C1998      N2004   1.157       .  T
C1999      N2008   1.157       .  T
C2000      N2006   1.158       .  T
C2009      C2010   1.411       .  A
C2009      C2014   1.407       .  A
C2009      C2027   1.452       .  S
C2010      C2015   1.491       .  S
C2010      C2011   1.410       .  A
C2011      C2012   1.409       .  A
C2011      C2016   1.450       .  S
C2012      C2013   1.414       .  A
C2012      C2028   1.451       .  S
C2013      C2014   1.414       .  A
C2014      C2017   1.452       .  S
C2015      C2018   1.409       .  A
C2015      C2022   1.408       .  A
C2016      N2033   1.157       .  T
C2017      N2035   1.157       .  T
C2018      C2019   1.410       .  A
C2018      C2023   1.451       .  S
C2019      C2020   1.415       .  A
C2019      C2025   1.448       .  S
C2020      C2021   1.414       .  A
C2021      C2022   1.406       .  A
C2021      C2024   1.448       .  S
C2022      C2026   1.452       .  S
C2023      N2030   1.157       .  T
C2024      N2031   1.157       .  T
C2025      N2029   1.157       .  T
C2026      N2032   1.157       .  T
C2027      N2036   1.157       .  T
C2028      N2034   1.157       .  T
C2037      C2038   1.412       .  A
C2037      C2042   1.411       .  A
C2037      C2055   1.451       .  S
C2038      C2043   1.494       .  S
C2038      C2039   1.411       .  A
C2039      C2040   1.408       .  A
C2039      C2044   1.451       .  S
C2040      C2041   1.414       .  A
C2040      C2056   1.451       .  S
C2041      C2042   1.413       .  A
C2042      C2045   1.450       .  S
C2043      C2046   1.409   1_545  A
C2043      C2050   1.410   1_545  A
C2044      N2061   1.157       .  T
C2045      N2063   1.157       .  T
C2046      C2047   1.407       .  A
C2046      C2051   1.451   1_565  S
C2047      C2048   1.415       .  A
C2047      C2053   1.449       .  S
C2048      C2049   1.415       .  A
C2049      C2050   1.410       .  A
C2049      C2052   1.449       .  S
C2050      C2054   1.451   1_565  S
C2051      N2058   1.157       .  T
C2052      N2059   1.157       .  T
C2053      N2057   1.157       .  T
C2054      N2060   1.157       .  T
C2055      N2064   1.157       .  T
C2056      N2062   1.157       .  T
C2065      C2066   1.404       .  A
C2065      C2070   1.411       .  A
C2065      C2083   1.453       .  S
C2066      C2071   1.494       .  S
C2066      C2067   1.405       .  A
C2067      C2068   1.411       .  A
C2067      C2072   1.451       .  S
C2068      C2069   1.426       .  A
C2068      C2084   1.451       .  S
C2069      C2070   1.431       .  A
C2070      C2073   1.452       .  S
C2071      C2074   1.407       .  A
C2071      C2078   1.409       .  A
C2072      N2089   1.156       .  T
C2073      N2091   1.158       .  T
C2074      C2075   1.409       .  A
C2074      C2079   1.451       .  S
C2075      C2076   1.413       .  A
C2075      C2081   1.445       .  S
C2076      C2077   1.412       .  A
C2077      C2078   1.410       .  A
C2077      C2080   1.445       .  S
C2078      C2082   1.451       .  S
C2079      N2086   1.157       .  T
C2080      N2087   1.157       .  T
C2081      N2085   1.157       .  T
C2082      N2088   1.157       .  T
C2083      N2092   1.157       .  T
C2084      N2090   1.157       .  T
C2093      C2094   1.406       .  A
C2093      C2098   1.408       .  A
C2093      C2111   1.452       .  S
C2094      C2099   1.487       .  S
C2094      C2095   1.405       .  A
C2095      C2096   1.409       .  A
C2095      C2100   1.453       .  S
C2096      C2097   1.425       .  A
C2096      C2112   1.452       .  S
C2097      C2098   1.423       .  A
C2098      C2101   1.451       .  S
C2099      C2102   1.407       .  A
C2099      C2106   1.407       .  A
C2100      N2117   1.157       .  T
C2101      N2119   1.157       .  T
C2102      C2103   1.407       .  A
C2102      C2107   1.452       .  S
C2103      C2104   1.414       .  A
C2103      C2109   1.447       .  S
C2104      C2105   1.414       .  A
C2105      C2106   1.407       .  A
C2105      C2108   1.447       .  S
C2106      C2110   1.451       .  S
C2107      N2114   1.157       .  T
C2108      N2115   1.157       .  T
C2109      N2113   1.157       .  T
C2110      N2116   1.157       .  T
C2111      N2120   1.157       .  T
C2112      N2118   1.157       .  T
C2121      C2122   1.407       .  A
C2121      C2126   1.408       .  A
C2121      C2139   1.451       .  S
C2122      C2127   1.490       .  S
C2122      C2123   1.408       .  A
C2123      C2124   1.410       .  A
C2123      C2128   1.451       .  S
C2124      C2125   1.419       .  A
C2124      C2140   1.451       .  S
C2125      C2126   1.420       .  A
C2126      C2129   1.452       .  S
C2127      C2130   1.408       .  A
C2127      C2134   1.408       .  A
C2128      N2145   1.157       .  T
C2129      N2147   1.158       .  T
C2130      C2131   1.409       .  A
C2130      C2135   1.451       .  S
C2131      C2132   1.416       .  A
C2131      C2137   1.448       .  S
C2132      C2133   1.414       .  A
C2133      C2134   1.406       .  A
C2133      C2136   1.448       .  S
C2134      C2138   1.452       .  S
C2135      N2142   1.157       .  T
C2136      N2143   1.157       .  T
C2137      N2141   1.157       .  T
C2138      N2144   1.157       .  T
C2139      N2148   1.157       .  T
C2140      N2146   1.157       .  T
C2149      C2150   1.411       .  A
C2149      C2154   1.412       .  A
C2149      C2167   1.450       .  S
C2150      C2155   1.499       .  S
C2150      C2151   1.411       .  A
C2151      C2152   1.413       .  A
C2151      C2156   1.451       .  S
C2152      C2153   1.416       .  A
C2152      C2168   1.451       .  S
C2153      C2154   1.414       .  A
C2154      C2157   1.451       .  S
C2155      C2158   1.410       .  A
C2155      C2162   1.410       .  A
C2156      N2173   1.157       .  T
C2157      N2175   1.157       .  T
C2158      C2159   1.411       .  A
C2158      C2163   1.451       .  S
C2159      C2160   1.417       .  A
C2159      C2165   1.451       .  S
C2160      C2161   1.414       .  A
C2161      C2162   1.412       .  A
C2161      C2164   1.448       .  S
C2162      C2166   1.450       .  S
C2163      N2170   1.157       .  T
C2164      N2171   1.157       .  T
C2165      N2169   1.157       .  T
C2166      N2172   1.157       .  T
C2167      N2176   1.157       .  T
C2168      N2174   1.157   1_545  T
C2177      C2178   1.410       .  A
C2177      C2182   1.411       .  A
C2177      C2195   1.450       .  S
C2178      C2183   1.496       .  S
C2178      C2179   1.410       .  A
C2179      C2180   1.411       .  A
C2179      C2184   1.450       .  S
C2180      C2181   1.416       .  A
C2180      C2196   1.451       .  S
C2181      C2182   1.414       .  A
C2182      C2185   1.446       .  S
C2183      C2186   1.410       .  A
C2183      C2190   1.408       .  A
C2184      N2201   1.157       .  T
C2185      N2203   1.156       .  T
C2186      C2187   1.411       .  A
C2186      C2191   1.450       .  S
C2187      C2188   1.418       .  A
C2187      C2193   1.452       .  S
C2188      C2189   1.422       .  A
C2189      C2190   1.411       .  A
C2189      C2192   1.451       .  S
C2190      C2194   1.452       .  S
C2191      N2198   1.157       .  T
C2192      N2199   1.157   1_565  T
C2193      N2197   1.158       .  T
C2194      N2200   1.157       .  T
C2195      N2204   1.157       .  T
C2196      N2202   1.157       .  T
C2205      C2206   1.413       .  A
C2205      C2210   1.412       .  A
C2205      C2223   1.451       .  S
C2206      C2211   1.503       .  S
C2206      C2207   1.412       .  A
C2207      C2208   1.410       .  A
C2207      C2212   1.451       .  S
C2208      C2209   1.417       .  A
C2208      C2224   1.452       .  S
C2209      C2210   1.414       .  A
C2210      C2213   1.448       .  S
C2211      C2214   1.412       .  A
C2211      C2218   1.411       .  A
C2212      N2229   1.157       .  T
C2213      N2231   1.157       .  T
C2214      C2215   1.413       .  A
C2214      C2219   1.452       .  S
C2215      C2216   1.419       .  A
C2215      C2221   1.452       .  S
C2216      C2217   1.419       .  A
C2217      C2218   1.412       .  A
C2217      C2220   1.450       .  S
C2218      C2222   1.452       .  S
C2219      N2226   1.157       .  T
C2220      N2227   1.157       .  T
C2221      N2225   1.158       .  T
C2222      N2228   1.157       .  T
C2223      N2232   1.157       .  T
C2224      N2230   1.157       .  T
C2233      C2234   1.410       .  A
C2233      C2238   1.407       .  A
C2233      C2251   1.448       .  S
C2234      C2239   1.494       .  S
C2234      C2235   1.414       .  A
C2235      C2236   1.411       .  A
C2235      C2240   1.448       .  S
C2236      C2237   1.409       .  A
C2236      C2252   1.445       .  S
C2237      C2238   1.407       .  A
C2238      C2241   1.444       .  S
C2239      C2242   1.412       .  A
C2239      C2246   1.412       .  A
C2240      N2257   1.157       .  T
C2241      N2259   1.157       .  T
C2242      C2243   1.409       .  A
C2242      C2247   1.451       .  S
C2243      C2244   1.411       .  A
C2243      C2249   1.451       .  S
C2244      C2245   1.410       .  A
C2245      C2246   1.411       .  A
C2245      C2248   1.451       .  S
C2246      C2250   1.449       .  S
C2247      N2254   1.157       .  T
C2248      N2255   1.157       .  T
C2249      N2253   1.157       .  T
C2250      N2256   1.157       .  T
C2251      N2260   1.157       .  T
C2252      N2258   1.157       .  T
C2261      C2262   1.410       .  A
C2261      C2266   1.409       .  A
C2261      C2279   1.451       .  S
C2262      C2267   1.493       .  S
C2262      C2263   1.411       .  A
C2263      C2264   1.409       .  A
C2263      C2268   1.451       .  S
C2264      C2265   1.413       .  A
C2264      C2280   1.451       .  S
C2265      C2266   1.415       .  A
C2266      C2269   1.452       .  S
C2267      C2270   1.409       .  A
C2267      C2274   1.409       .  A
C2268      N2285   1.157       .  T
C2269      N2287   1.158       .  T
C2270      C2271   1.409       .  A
C2270      C2275   1.451       .  S
C2271      C2272   1.415       .  A
C2271      C2277   1.448       .  S
C2272      C2273   1.415       .  A
C2273      C2274   1.409       .  A
C2273      C2276   1.448       .  S
C2274      C2278   1.451       .  S
C2275      N2282   1.157       .  T
C2276      N2283   1.157       .  T
C2277      N2281   1.157       .  T
C2278      N2284   1.157       .  T
C2279      N2288   1.157       .  T
C2280      N2286   1.157       .  T
C2289      C2290   1.408       .  A
C2289      C2294   1.411       .  A
C2289      C2307   1.451       .  S
C2290      C2295   1.495       .  S
C2290      C2291   1.409       .  A
C2291      C2292   1.412       .  A
C2291      C2296   1.451       .  S
C2292      C2293   1.420       .  A
C2292      C2308   1.451       .  S
C2293      C2294   1.421       .  A
C2294      C2297   1.452       .  S
C2295      C2298   1.409   1_655  A
C2295      C2302   1.409   1_655  A
C2296      N2313   1.157       .  T
C2297      N2315   1.158       .  T
C2298      C2299   1.409       .  A
C2298      C2303   1.451   1_455  S
C2299      C2300   1.416       .  A
C2299      C2305   1.449       .  S
C2300      C2301   1.414       .  A
C2301      C2302   1.410       .  A
C2301      C2304   1.448       .  S
C2302      C2306   1.450   1_455  S
C2303      N2310   1.157       .  T
C2304      N2311   1.157       .  T
C2305      N2309   1.157       .  T
C2306      N2312   1.157       .  T
C2307      N2316   1.157       .  T
C2308      N2314   1.158       .  T
C2317      C2318   1.408       .  A
C2317      C2322   1.408       .  A
C2317      C2335   1.451       .  S
C2318      C2323   1.486       .  S
C2318      C2319   1.407       .  A
C2319      C2320   1.406       .  A
C2319      C2324   1.452       .  S
C2320      C2321   1.417       .  A
C2320      C2336   1.452       .  S
C2321      C2322   1.417       .  A
C2322      C2325   1.452       .  S
C2323      C2326   1.407   1_556  A
C2323      C2330   1.407       .  A
C2324      N2341   1.157       .  T
C2325      N2343   1.158       .  T
C2326      C2327   1.406       .  A
C2326      C2331   1.451   1_554  S
C2327      C2328   1.414       .  A
C2327      C2333   1.448       .  S
C2328      C2329   1.415       .  A
C2329      C2330   1.406   1_554  A
C2329      C2332   1.448       .  S
C2330      C2334   1.452       .  S
C2331      N2338   1.157       .  T
C2332      N2339   1.157       .  T
C2333      N2337   1.157       .  T
C2334      N2340   1.157       .  T
C2335      N2344   1.157       .  T
C2336      N2342   1.157       .  T
C2345      C2346   1.407       .  A
C2345      C2350   1.407       .  A
C2345      C2363   1.452       .  S
C2346      C2351   1.485       .  S
C2346      C2347   1.406       .  A
C2347      C2348   1.407       .  A
C2347      C2352   1.452       .  S
C2348      C2349   1.421       .  A
C2348      C2364   1.452       .  S
C2349      C2350   1.419       .  A
C2350      C2353   1.452       .  S
C2351      C2354   1.407       .  A
C2351      C2358   1.406       .  A
C2352      N2369   1.157       .  T
C2353      N2371   1.158       .  T
C2354      C2355   1.406       .  A
C2354      C2359   1.451       .  S
C2355      C2356   1.414       .  A
C2355      C2361   1.448       .  S
C2356      C2357   1.416       .  A
C2357      C2358   1.406       .  A
C2357      C2360   1.448       .  S
C2358      C2362   1.452       .  S
C2359      N2366   1.157       .  T
C2360      N2367   1.157       .  T
C2361      N2365   1.157       .  T
C2362      N2368   1.157       .  T
C2363      N2372   1.157       .  T
C2364      N2370   1.158       .  T
C2373      C2374   1.409       .  A
C2373      C2378   1.411       .  A
C2373      C2391   1.452       .  S
C2374      C2379   1.494       .  S
C2374      C2375   1.409       .  A
C2375      C2376   1.411       .  A
C2375      C2380   1.452       .  S
C2376      C2377   1.418       .  A
C2376      C2392   1.451       .  S
C2377      C2378   1.420       .  A
C2378      C2381   1.452       .  S
C2379      C2382   1.409   1_565  A
C2379      C2386   1.409   1_565  A
C2380      N2397   1.157       .  T
C2381      N2399   1.158       .  T
C2382      C2383   1.410       .  A
C2382      C2387   1.451   1_545  S
C2383      C2384   1.415       .  A
C2383      C2389   1.447       .  S
C2384      C2385   1.414       .  A
C2385      C2386   1.409       .  A
C2385      C2388   1.447       .  S
C2386      C2390   1.451   1_545  S
C2387      N2394   1.157       .  T
C2388      N2395   1.157       .  T
C2389      N2393   1.157       .  T
C2390      N2396   1.157       .  T
C2391      N2400   1.157       .  T
C2392      N2398   1.157       .  T
C2401      C2402   1.410       .  A
C2401      C2406   1.411       .  A
C2401      C2419   1.452       .  S
C2402      C2407   1.497       .  S
C2402      C2403   1.410       .  A
C2403      C2404   1.410       .  A
C2403      C2408   1.452       .  S
C2404      C2405   1.419       .  A
C2404      C2420   1.450       .  S
C2405      C2406   1.419       .  A
C2406      C2409   1.452   1_455  S
C2407      C2410   1.411       .  A
C2407      C2414   1.412       .  A
C2408      N2425   1.157       .  T
C2409      N2427   1.158       .  T
C2410      C2411   1.409       .  A
C2410      C2415   1.451       .  S
C2411      C2412   1.412       .  A
C2411      C2417   1.448       .  S
C2412      C2413   1.416       .  A
C2413      C2414   1.410       .  A
C2413      C2416   1.451       .  S
C2414      C2418   1.452       .  S
C2415      N2422   1.157       .  T
C2416      N2423   1.157       .  T
C2417      N2421   1.157       .  T
C2418      N2424   1.157       .  T
C2419      N2428   1.157       .  T
C2420      N2426   1.157       .  T
C2429      C2430   1.409       .  A
C2429      C2434   1.409       .  A
C2429      C2447   1.451       .  S
C2430      C2435   1.494       .  S
C2430      C2431   1.411       .  A
C2431      C2432   1.411       .  A
C2431      C2436   1.451       .  S
C2432      C2433   1.415       .  A
C2432      C2448   1.451       .  S
C2433      C2434   1.416       .  A
C2434      C2437   1.452       .  S
C2435      C2438   1.409       .  A
C2435      C2442   1.409       .  A
C2436      N2453   1.157       .  T
C2437      N2455   1.157       .  T
C2438      C2439   1.409       .  A
C2438      C2443   1.451       .  S
C2439      C2440   1.416       .  A
C2439      C2445   1.451       .  S
C2440      C2441   1.415       .  A
C2441      C2442   1.411       .  A
C2441      C2444   1.448       .  S
C2442      C2446   1.451       .  S
C2443      N2450   1.157       .  T
C2444      N2451   1.157       .  T
C2445      N2449   1.157       .  T
C2446      N2452   1.157       .  T
C2447      N2456   1.157       .  T
C2448      N2454   1.157       .  T
C2457      C2458   1.411       .  A
C2457      C2462   1.412       .  A
C2457      C2475   1.451       .  S
C2458      C2463   1.499       .  S
C2458      C2459   1.411       .  A
C2459      C2460   1.413       .  A
C2459      C2464   1.450       .  S
C2460      C2461   1.415       .  A
C2460      C2476   1.451       .  S
C2461      C2462   1.416       .  A
C2462      C2465   1.451       .  S
C2463      C2466   1.410       .  A
C2463      C2470   1.409       .  A
C2464      N2481   1.157       .  T
C2465      N2483   1.157       .  T
C2466      C2467   1.412       .  A
C2466      C2471   1.450       .  S
C2467      C2468   1.414       .  A
C2467      C2473   1.448       .  S
C2468      C2469   1.419       .  A
C2469      C2470   1.411       .  A
C2469      C2472   1.451       .  S
C2470      C2474   1.451       .  S
C2471      N2478   1.157       .  T
C2472      N2479   1.157       .  T
C2473      N2477   1.157       .  T
C2474      N2480   1.157       .  T
C2475      N2484   1.157       .  T
C2476      N2482   1.157       .  T
C2485      C2486   1.410       .  A
C2485      C2490   1.408       .  A
C2485      C2503   1.451       .  S
C2486      C2491   1.495       .  S
C2486      C2487   1.412       .  A
C2487      C2488   1.411       .  A
C2487      C2492   1.451       .  S
C2488      C2489   1.413       .  A
C2488      C2504   1.450       .  S
C2489      C2490   1.413       .  A
C2490      C2493   1.450       .  S
C2491      C2494   1.410       .  A
C2491      C2498   1.410       .  A
C2492      N2509   1.157       .  T
C2493      N2511   1.157       .  T
C2494      C2495   1.409       .  A
C2494      C2499   1.451       .  S
C2495      C2496   1.416       .  A
C2495      C2501   1.451       .  S
C2496      C2497   1.414       .  A
C2497      C2498   1.411       .  A
C2497      C2500   1.448       .  S
C2498      C2502   1.451       .  S
C2499      N2506   1.157       .  T
C2500      N2507   1.157       .  T
C2501      N2505   1.157       .  T
C2502      N2508   1.157       .  T
C2503      N2512   1.157       .  T
C2504      N2510   1.157       .  T
C2513      C2514   1.410       .  A
C2513      C2518   1.411       .  A
C2513      C2531   1.451       .  S
C2514      C2519   1.497       .  S
C2514      C2515   1.410       .  A
C2515      C2516   1.410       .  A
C2515      C2520   1.451       .  S
C2516      C2517   1.416       .  A
C2516      C2532   1.451       .  S
C2517      C2518   1.414       .  A
C2518      C2521   1.448       .  S
C2519      C2522   1.408       .  A
C2519      C2526   1.407       .  A
C2520      N2537   1.157       .  T
C2521      N2539   1.157       .  T
C2522      C2523   1.413       .  A
C2522      C2527   1.452       .  S
C2523      C2524   1.424       .  A
C2523      C2529   1.451       .  S
C2524      C2525   1.425       .  A
C2525      C2526   1.411       .  A
C2525      C2528   1.452       .  S
C2526      C2530   1.452       .  S
C2527      N2534   1.157       .  T
C2528      N2535   1.158       .  T
C2529      N2533   1.158       .  T
C2530      N2536   1.157       .  T
C2531      N2540   1.157       .  T
C2532      N2538   1.157       .  T
C2541      C2542   1.409       .  A
C2541      C2546   1.410       .  A
C2541      C2559   1.450       .  S
C2542      C2547   1.496       .  S
C2542      C2543   1.409       .  A
C2543      C2544   1.412       .  A
C2543      C2548   1.451       .  S
C2544      C2545   1.414       .  A
C2544      C2560   1.448       .  S
C2545      C2546   1.415       .  A
C2546      C2549   1.451       .  S
C2547      C2550   1.407       .  A
C2547      C2554   1.407       .  A
C2548      N2565   1.157       .  T
C2549      N2567   1.157       .  T
C2550      C2551   1.412       .  A
C2550      C2555   1.453       .  S
C2551      C2552   1.425       .  A
C2551      C2557   1.451   1_655  S
C2552      C2553   1.424       .  A
C2553      C2554   1.412       .  A
C2553      C2556   1.451       .  S
C2554      C2558   1.451       .  S
C2555      N2562   1.157       .  T
C2556      N2563   1.158       .  T
C2557      N2561   1.157       .  T
C2558      N2564   1.157       .  T
C2559      N2568   1.157       .  T
C2560      N2566   1.157       .  T
C2569      C2570   1.407       .  A
C2569      C2574   1.412       .  A
C2569      C2587   1.452       .  S
C2570      C2575   1.493       .  S
C2570      C2571   1.408       .  A
C2571      C2572   1.410       .  A
C2571      C2576   1.452       .  S
C2572      C2573   1.421       .  A
C2572      C2588   1.452       .  S
C2573      C2574   1.423       .  A
C2574      C2577   1.451       .  S
C2575      C2578   1.408       .  A
C2575      C2582   1.408       .  A
C2576      N2593   1.157       .  T
C2577      N2595   1.157       .  T
C2578      C2579   1.409       .  A
C2578      C2583   1.451       .  S
C2579      C2580   1.415       .  A
C2579      C2585   1.447       .  S
C2580      C2581   1.413       .  A
C2581      C2582   1.409       .  A
C2581      C2584   1.447       .  S
C2582      C2586   1.451       .  S
C2583      N2590   1.157       .  T
C2584      N2591   1.157       .  T
C2585      N2589   1.157       .  T
C2586      N2592   1.157       .  T
C2587      N2596   1.157       .  T
C2588      N2594   1.158       .  T
C2597      C2598   1.412       .  A
C2597      C2602   1.411       .  A
C2597      C2615   1.451       .  S
C2598      C2603   1.497       .  S
C2598      C2599   1.410       .  A
C2599      C2600   1.410       .  A
C2599      C2604   1.451       .  S
C2600      C2601   1.415       .  A
C2600      C2616   1.451       .  S
C2601      C2602   1.414       .  A
C2602      C2605   1.450       .  S
C2603      C2606   1.410       .  A
C2603      C2610   1.409       .  A
C2604      N2621   1.157       .  T
C2605      N2623   1.157       .  T
C2606      C2607   1.411       .  A
C2606      C2611   1.451       .  S
C2607      C2608   1.416       .  A
C2607      C2613   1.448       .  S
C2608      C2609   1.415       .  A
C2609      C2610   1.410       .  A
C2609      C2612   1.447       .  S
C2610      C2614   1.451       .  S
C2611      N2618   1.157       .  T
C2612      N2619   1.157       .  T
C2613      N2617   1.157       .  T
C2614      N2620   1.157       .  T
C2615      N2624   1.157       .  T
C2616      N2622   1.157       .  T
C2625      C2626   1.408       .  A
C2625      C2630   1.409       .  A
C2625      C2643   1.452       .  S
C2626      C2631   1.488       .  S
C2626      C2627   1.406       .  A
C2627      C2628   1.408       .  A
C2627      C2632   1.452       .  S
C2628      C2629   1.422       .  A
C2628      C2644   1.452       .  S
C2629      C2630   1.420       .  A
C2630      C2633   1.451       .  S
C2631      C2634   1.409   1_455  A
C2631      C2638   1.408   1_455  A
C2632      N2649   1.157       .  T
C2633      N2651   1.157       .  T
C2634      C2635   1.406       .  A
C2634      C2639   1.452   1_655  S
C2635      C2636   1.412       .  A
C2635      C2641   1.447       .  S
C2636      C2637   1.413       .  A
C2637      C2638   1.408       .  A
C2637      C2640   1.447       .  S
C2638      C2642   1.450       .  S
C2639      N2646   1.157       .  T
C2640      N2647   1.157       .  T
C2641      N2645   1.157       .  T
C2642      N2648   1.157   1_655  T
C2643      N2652   1.157       .  T
C2644      N2650   1.158       .  T
C2653      C2654   1.409       .  A
C2653      C2658   1.410       .  A
C2653      C2671   1.451       .  S
C2654      C2659   1.490       .  S
C2654      C2655   1.408       .  A
C2655      C2656   1.407       .  A
C2655      C2660   1.452       .  S
C2656      C2657   1.418       .  A
C2656      C2672   1.452       .  S
C2657      C2658   1.417       .  A
C2658      C2661   1.452       .  S
C2659      C2662   1.408       .  A
C2659      C2666   1.407       .  A
C2660      N2677   1.157       .  T
C2661      N2679   1.158       .  T
C2662      C2663   1.408       .  A
C2662      C2667   1.452       .  S
C2663      C2664   1.414       .  A
C2663      C2669   1.447       .  S
C2664      C2665   1.415       .  A
C2665      C2666   1.409       .  A
C2665      C2668   1.447       .  S
C2666      C2670   1.451       .  S
C2667      N2674   1.157       .  T
C2668      N2675   1.157       .  T
C2669      N2673   1.157       .  T
C2670      N2676   1.157       .  T
C2671      N2680   1.157       .  T
C2672      N2678   1.158       .  T
C2681      C2682   1.409       .  A
C2681      C2686   1.408       .  A
C2681      C2699   1.452       .  S
C2682      C2687   1.491       .  S
C2682      C2683   1.408       .  A
C2683      C2684   1.407       .  A
C2683      C2688   1.452       .  S
C2684      C2685   1.414       .  A
C2684      C2700   1.446       .  S
C2685      C2686   1.414       .  A
C2686      C2689   1.447       .  S
C2687      C2690   1.411       .  A
C2687      C2694   1.410       .  A
C2688      N2705   1.157       .  T
C2689      N2707   1.157       .  T
C2690      C2691   1.409       .  A
C2690      C2695   1.452       .  S
C2691      C2692   1.415       .  A
C2691      C2697   1.450       .  S
C2692      C2693   1.414       .  A
C2693      C2694   1.407       .  A
C2693      C2696   1.451       .  S
C2694      C2698   1.452       .  S
C2695      N2702   1.157       .  T
C2696      N2703   1.157       .  T
C2697      N2701   1.157       .  T
C2698      N2704   1.157       .  T
C2699      N2708   1.157       .  T
C2700      N2706   1.157       .  T
C2709      C2710   1.407       .  A
C2709      C2714   1.409       .  A
C2709      C2727   1.454       .  S
C2710      C2715   1.493       .  S
C2710      C2711   1.407       .  A
C2711      C2712   1.411       .  A
C2711      C2716   1.453       .  S
C2712      C2713   1.425       .  A
C2712      C2728   1.452       .  S
C2713      C2714   1.426       .  A
C2714      C2717   1.452       .  S
C2715      C2718   1.409       .  A
C2715      C2722   1.410       .  A
C2716      N2733   1.157       .  T
C2717      N2735   1.158       .  T
C2718      C2719   1.406       .  A
C2718      C2723   1.452       .  S
C2719      C2720   1.412       .  A
C2719      C2725   1.448       .  S
C2720      C2721   1.414       .  A
C2721      C2722   1.410       .  A
C2721      C2724   1.448       .  S
C2722      C2726   1.451       .  S
C2723      N2730   1.157       .  T
C2724      N2731   1.157       .  T
C2725      N2729   1.157       .  T
C2726      N2732   1.157       .  T
C2727      N2736   1.157       .  T
C2728      N2734   1.158       .  T
C2737      C2738   1.412       .  A
C2737      C2742   1.416       .  A
C2737      C2755   1.450       .  S
C2738      C2743   1.506       .  S
C2738      C2739   1.411       .  A
C2739      C2740   1.415       .  A
C2739      C2744   1.450       .  S
C2740      C2741   1.417       .  A
C2740      C2756   1.450       .  S
C2741      C2742   1.418       .  A
C2742      C2745   1.451   1_554  S
C2743      C2746   1.410       .  A
C2743      C2750   1.410       .  A
C2744      N2761   1.157       .  T
C2745      N2763   1.158       .  T
C2746      C2747   1.415       .  A
C2746      C2751   1.450       .  S
C2747      C2748   1.417       .  A
C2747      C2753   1.447       .  S
C2748      C2749   1.420       .  A
C2749      C2750   1.416       .  A
C2749      C2752   1.451       .  S
C2750      C2754   1.450       .  S
C2751      N2758   1.157       .  T
C2752      N2759   1.157       .  T
C2753      N2757   1.157       .  T
C2754      N2760   1.157       .  T
C2755      N2764   1.157       .  T
C2756      N2762   1.157       .  T
C2765      C2766   1.412       .  A
C2765      C2770   1.412       .  A
C2765      C2783   1.451       .  S
C2766      C2771   1.499       .  S
C2766      C2767   1.412       .  A
C2767      C2768   1.411       .  A
C2767      C2772   1.450       .  S
C2768      C2769   1.413       .  A
C2768      C2784   1.452       .  S
C2769      C2770   1.411       .  A
C2770      C2773   1.450       .  S
C2771      C2774   1.411       .  A
C2771      C2778   1.410       .  A
C2772      N2789   1.157       .  T
C2773      N2791   1.157       .  T
C2774      C2775   1.413       .  A
C2774      C2779   1.451       .  S
C2775      C2776   1.415       .  A
C2775      C2781   1.448       .  S
C2776      C2777   1.418       .  A
C2777      C2778   1.411       .  A
C2777      C2780   1.451       .  S
C2778      C2782   1.451       .  S
C2779      N2786   1.157       .  T
C2780      N2787   1.157       .  T
C2781      N2785   1.157       .  T
C2782      N2788   1.157       .  T
C2783      N2792   1.157       .  T
C2784      N2790   1.157       .  T
C2793      C2794   1.411       .  A
C2793      C2798   1.412       .  A
C2793      C2811   1.449       .  S
C2794      C2799   1.497       .  S
C2794      C2795   1.409       .  A
C2795      C2796   1.411       .  A
C2795      C2800   1.451       .  S
C2796      C2797   1.419       .  A
C2796      C2812   1.452       .  S
C2797      C2798   1.417       .  A
C2798      C2801   1.451       .  S
C2799      C2802   1.411       .  A
C2799      C2806   1.411       .  A
C2800      N2817   1.157       .  T
C2801      N2819   1.157       .  T
C2802      C2803   1.412       .  A
C2802      C2807   1.450       .  S
C2803      C2804   1.414       .  A
C2803      C2809   1.450       .  S
C2804      C2805   1.412       .  A
C2805      C2806   1.410       .  A
C2805      C2808   1.447       .  S
C2806      C2810   1.450       .  S
C2807      N2814   1.157       .  T
C2808      N2815   1.156       .  T
C2809      N2813   1.157       .  T
C2810      N2816   1.157       .  T
C2811      N2820   1.157       .  T
C2812      N2818   1.157       .  T
C2821      C2822   1.409       .  A
C2821      C2826   1.409       .  A
C2821      C2839   1.451       .  S
C2822      C2827   1.493       .  S
C2822      C2823   1.409       .  A
C2823      C2824   1.409       .  A
C2823      C2828   1.451       .  S
C2824      C2825   1.417       .  A
C2824      C2840   1.451       .  S
C2825      C2826   1.413       .  A
C2826      C2829   1.448       .  S
C2827      C2830   1.405       .  A
C2827      C2834   1.406       .  A
C2828      N2845   1.157       .  T
C2829      N2847   1.157       .  T
C2830      C2831   1.411       .  A
C2830      C2835   1.453       .  S
C2831      C2832   1.427       .  A
C2831      C2837   1.451       .  S
C2832      C2833   1.427       .  A
C2833      C2834   1.411       .  A
C2833      C2836   1.451       .  S
C2834      C2838   1.452       .  S
C2835      N2842   1.157       .  T
C2836      N2843   1.157       .  T
C2837      N2841   1.157       .  T
C2838      N2844   1.157       .  T
C2839      N2848   1.157       .  T
C2840      N2846   1.157       .  T
C2849      C2850   1.408       .  A
C2849      C2854   1.412       .  A
C2849      C2867   1.452       .  S
C2850      C2855   1.494       .  S
C2850      C2851   1.407       .  A
C2851      C2852   1.410       .  A
C2851      C2856   1.452       .  S
C2852      C2853   1.422       .  A
C2852      C2868   1.452       .  S
C2853      C2854   1.423       .  A
C2854      C2857   1.452       .  S
C2855      C2858   1.409       .  A
C2855      C2862   1.409       .  A
C2856      N2873   1.157       .  T
C2857      N2875   1.158       .  T
C2858      C2859   1.411       .  A
C2858      C2863   1.450       .  S
C2859      C2860   1.416       .  A
C2859      C2865   1.451       .  S
C2860      C2861   1.414       .  A
C2861      C2862   1.409       .  A
C2861      C2864   1.448       .  S
C2862      C2866   1.451       .  S
C2863      N2870   1.157       .  T
C2864      N2871   1.157       .  T
C2865      N2869   1.157       .  T
C2866      N2872   1.157       .  T
C2867      N2876   1.157       .  T
C2868      N2874   1.158       .  T
C2877      C2878   1.410       .  A
C2877      C2882   1.415       .  A
C2877      C2895   1.450       .  S
C2878      C2883   1.503       .  S
C2878      C2879   1.409       .  A
C2879      C2880   1.413       .  A
C2879      C2884   1.451       .  S
C2880      C2881   1.421       .  A
C2880      C2896   1.451       .  S
C2881      C2882   1.416       .  A
C2882      C2885   1.447       .  S
C2883      C2886   1.411       .  A
C2883      C2890   1.411       .  A
C2884      N2901   1.157       .  T
C2885      N2903   1.157       .  T
C2886      C2887   1.413       .  A
C2886      C2891   1.450       .  S
C2887      C2888   1.416       .  A
C2887      C2893   1.451       .  S
C2888      C2889   1.416       .  A
C2889      C2890   1.415       .  A
C2889      C2892   1.450       .  S
C2890      C2894   1.451       .  S
C2891      N2898   1.157       .  T
C2892      N2899   1.157   1_556  T
C2893      N2897   1.157       .  T
C2894      N2900   1.157       .  T
C2895      N2904   1.157       .  T
C2896      N2902   1.157       .  T
C2905      C2906   1.408       .  A
C2905      C2910   1.409       .  A
C2905      C2923   1.451       .  S
C2906      C2911   1.491       .  S
C2906      C2907   1.408       .  A
C2907      C2908   1.408       .  A
C2907      C2912   1.451       .  S
C2908      C2909   1.413       .  A
C2908      C2924   1.447       .  S
C2909      C2910   1.414       .  A
C2910      C2913   1.447       .  S
C2911      C2914   1.406       .  A
C2911      C2918   1.407       .  A
C2912      N2929   1.157       .  T
C2913      N2931   1.157       .  T
C2914      C2915   1.410       .  A
C2914      C2919   1.452       .  S
C2915      C2916   1.424       .  A
C2915      C2921   1.452       .  S
C2916      C2917   1.423       .  A
C2917      C2918   1.411       .  A
C2917      C2920   1.450       .  S
C2918      C2922   1.452       .  S
C2919      N2926   1.157       .  T
C2920      N2927   1.157       .  T
C2921      N2925   1.158       .  T
C2922      N2928   1.157       .  T
C2923      N2932   1.157       .  T
C2924      N2930   1.157       .  T
C2933      C2934   1.410       .  A
C2933      C2938   1.407       .  A
C2933      C2951   1.452       .  S
C2934      C2939   1.494       .  S
C2934      C2935   1.412       .  A
C2935      C2936   1.411       .  A
C2935      C2940   1.451       .  S
C2936      C2937   1.414       .  A
C2936      C2952   1.451       .  S
C2937      C2938   1.412       .  A
C2938      C2941   1.449       .  S
C2939      C2942   1.409       .  A
C2939      C2946   1.410       .  A
C2940      N2957   1.157       .  T
C2941      N2959   1.157       .  T
C2942      C2943   1.410       .  A
C2942      C2947   1.451       .  S
C2943      C2944   1.415       .  A
C2943      C2949   1.448       .  S
C2944      C2945   1.414       .  A
C2945      C2946   1.407       .  A
C2945      C2948   1.448       .  S
C2946      C2950   1.452       .  S
C2947      N2954   1.157       .  T
C2948      N2955   1.157       .  T
C2949      N2953   1.157       .  T
C2950      N2956   1.157       .  T
C2951      N2960   1.157       .  T
C2952      N2958   1.157       .  T
C2961      C2962   1.406       .  A
C2961      C2966   1.408       .  A
C2961      C2979   1.453       .  S
C2962      C2967   1.488       .  S
C2962      C2963   1.406       .  A
C2963      C2964   1.410       .  A
C2963      C2968   1.453       .  S
C2964      C2965   1.423       .  A
C2964      C2980   1.450       .  S
C2965      C2966   1.424       .  A
C2966      C2969   1.452       .  S
C2967      C2970   1.408       .  A
C2967      C2974   1.407       .  A
C2968      N2985   1.157       .  T
C2969      N2987   1.158       .  T
C2970      C2971   1.407       .  A
C2970      C2975   1.451       .  S
C2971      C2972   1.413       .  A
C2971      C2977   1.447       .  S
C2972      C2973   1.414       .  A
C2973      C2974   1.407       .  A
C2973      C2976   1.447       .  S
C2974      C2978   1.451       .  S
C2975      N2982   1.157       .  T
C2976      N2983   1.157       .  T
C2977      N2981   1.157       .  T
C2978      N2984   1.157       .  T
C2979      N2988   1.157       .  T
C2980      N2986   1.157       .  T
C2989      C2990   1.411       .  A
C2989      C2994   1.412       .  A
C2989      C3007   1.451       .  S
C2990      C2995   1.496       .  S
C2990      C2991   1.410       .  A
C2991      C2992   1.410       .  A
C2991      C2996   1.451       .  S
C2992      C2993   1.416       .  A
C2992      C3008   1.450       .  S
C2993      C2994   1.416       .  A
C2994      C2997   1.451       .  S
C2995      C2998   1.409       .  A
C2995      C3002   1.409       .  A
C2996      N3013   1.157       .  T
C2997      N3015   1.157       .  T
C2998      C2999   1.409       .  A
C2998      C3003   1.452       .  S
C2999      C3000   1.416       .  A
C2999      C3005   1.447       .  S
C3000      C3001   1.416       .  A
C3001      C3002   1.411       .  A
C3001      C3004   1.447       .  S
C3002      C3006   1.451       .  S
C3003      N3010   1.157       .  T
C3004      N3011   1.157       .  T
C3005      N3009   1.157       .  T
C3006      N3012   1.157       .  T
C3007      N3016   1.157       .  T
C3008      N3014   1.157       .  T
C3017      C3018   1.410       .  A
C3017      C3022   1.411       .  A
C3017      C3035   1.451       .  S
C3018      C3023   1.496       .  S
C3018      C3019   1.411       .  A
C3019      C3020   1.410       .  A
C3019      C3024   1.451       .  S
C3020      C3021   1.415       .  A
C3020      C3036   1.452       .  S
C3021      C3022   1.415       .  A
C3022      C3025   1.449       .  S
C3023      C3026   1.408       .  A
C3023      C3030   1.409       .  A
C3024      N3041   1.157       .  T
C3025      N3043   1.157       .  T
C3026      C3027   1.410       .  A
C3026      C3031   1.451       .  S
C3027      C3028   1.416       .  A
C3027      C3033   1.448       .  S
C3028      C3029   1.416       .  A
C3029      C3030   1.411       .  A
C3029      C3032   1.448       .  S
C3030      C3034   1.451       .  S
C3031      N3038   1.157       .  T
C3032      N3039   1.157       .  T
C3033      N3037   1.157       .  T
C3034      N3040   1.157       .  T
C3035      N3044   1.157       .  T
C3036      N3042   1.157       .  T
C3045      C3046   1.407       .  A
C3045      C3050   1.408       .  A
C3045      C3063   1.452       .  S
C3046      C3051   1.490       .  S
C3046      C3047   1.407       .  A
C3047      C3048   1.411       .  A
C3047      C3052   1.452       .  S
C3048      C3049   1.420       .  A
C3048      C3064   1.449       .  S
C3049      C3050   1.419       .  A
C3050      C3053   1.452       .  S
C3051      C3054   1.407   1_554  A
C3051      C3058   1.409   1_554  A
C3052      N3069   1.157       .  T
C3053      N3071   1.157       .  T
C3054      C3055   1.406       .  A
C3054      C3059   1.451   1_556  S
C3055      C3056   1.415       .  A
C3055      C3061   1.448       .  S
C3056      C3057   1.415       .  A
C3057      C3058   1.410       .  A
C3057      C3060   1.448       .  S
C3058      C3062   1.451   1_556  S
C3059      N3066   1.157       .  T
C3060      N3067   1.157       .  T
C3061      N3065   1.157       .  T
C3062      N3068   1.157       .  T
C3063      N3072   1.157       .  T
C3064      N3070   1.157       .  T
C3073      C3074   1.411       .  A
C3073      C3078   1.414       .  A
C3073      C3091   1.450       .  S
C3074      C3079   1.499       .  S
C3074      C3075   1.410       .  A
C3075      C3076   1.410       .  A
C3075      C3080   1.451       .  S
C3076      C3077   1.417       .  A
C3076      C3092   1.451       .  S
C3077      C3078   1.415       .  A
C3078      C3081   1.449       .  S
C3079      C3082   1.410       .  A
C3079      C3086   1.410       .  A
C3080      N3097   1.157       .  T
C3081      N3099   1.157       .  T
C3082      C3083   1.413       .  A
C3082      C3087   1.451       .  S
C3083      C3084   1.419       .  A
C3083      C3089   1.451       .  S
C3084      C3085   1.418       .  A
C3085      C3086   1.411       .  A
C3085      C3088   1.451       .  S
C3086      C3090   1.451       .  S
C3087      N3094   1.157       .  T
C3088      N3095   1.157       .  T
C3089      N3093   1.158       .  T
C3090      N3096   1.157       .  T
C3091      N3100   1.157       .  T
C3092      N3098   1.157       .  T
C3101      C3102   1.409       .  A
C3101      C3106   1.412       .  A
C3101      C3119   1.451       .  S
C3102      C3107   1.497       .  S
C3102      C3103   1.410       .  A
C3103      C3104   1.412       .  A
C3103      C3108   1.451       .  S
C3104      C3105   1.418       .  A
C3104      C3120   1.451       .  S
C3105      C3106   1.418       .  A
C3106      C3109   1.451       .  S
C3107      C3110   1.408       .  A
C3107      C3114   1.409       .  A
C3108      N3125   1.157       .  T
C3109      N3127   1.157       .  T
C3110      C3111   1.411       .  A
C3110      C3115   1.451       .  S
C3111      C3112   1.419       .  A
C3111      C3117   1.451       .  S
C3112      C3113   1.415       .  A
C3113      C3114   1.411       .  A
C3113      C3116   1.448       .  S
C3114      C3118   1.451       .  S
C3115      N3122   1.157       .  T
C3116      N3123   1.157       .  T
C3117      N3121   1.157       .  T
C3118      N3124   1.157       .  T
C3119      N3128   1.157       .  T
C3120      N3126   1.158       .  T
C3129      C3130   1.413       .  A
C3129      C3134   1.410       .  A
C3129      C3147   1.451       .  S
C3130      C3135   1.502       .  S
C3130      C3131   1.413       .  A
C3131      C3132   1.412       .  A
C3131      C3136   1.451       .  S
C3132      C3133   1.413       .  A
C3132      C3148   1.448       .  S
C3133      C3134   1.413       .  A
C3134      C3137   1.451       .  S
C3135      C3138   1.415       .  A
C3135      C3142   1.415       .  A
C3136      N3153   1.157       .  T
C3137      N3155   1.157       .  T
C3138      C3139   1.412       .  A
C3138      C3143   1.451       .  S
C3139      C3140   1.411       .  A
C3139      C3145   1.451       .  S
C3140      C3141   1.410       .  A
C3141      C3142   1.410       .  A
C3141      C3144   1.451       .  S
C3142      C3146   1.451       .  S
C3143      N3150   1.157       .  T
C3144      N3151   1.157       .  T
C3145      N3149   1.157       .  T
C3146      N3152   1.157       .  T
C3147      N3156   1.157       .  T
C3148      N3154   1.157       .  T
C3157      C3158   1.408       .  A
C3157      C3162   1.409       .  A
C3157      C3175   1.452       .  S
C3158      C3163   1.493       .  S
C3158      C3159   1.409       .  A
C3159      C3160   1.412       .  A
C3159      C3164   1.451       .  S
C3160      C3161   1.419       .  A
C3160      C3176   1.451       .  S
C3161      C3162   1.418       .  A
C3162      C3165   1.452       .  S
C3163      C3166   1.408       .  A
C3163      C3170   1.409       .  A
C3164      N3181   1.157       .  T
C3165      N3183   1.157       .  T
C3166      C3167   1.409       .  A
C3166      C3171   1.451       .  S
C3167      C3168   1.413       .  A
C3167      C3173   1.448       .  S
C3168      C3169   1.418       .  A
C3169      C3170   1.410       .  A
C3169      C3172   1.451       .  S
C3170      C3174   1.451       .  S
C3171      N3178   1.157       .  T
C3172      N3179   1.157       .  T
C3173      N3177   1.157       .  T
C3174      N3180   1.157       .  T
C3175      N3184   1.157       .  T
C3176      N3182   1.158       .  T
C3185      C3186   1.410       .  A
C3185      C3190   1.410       .  A
C3185      C3203   1.450       .  S
C3186      C3191   1.495       .  S
C3186      C3187   1.410       .  A
C3187      C3188   1.409       .  A
C3187      C3192   1.451       .  S
C3188      C3189   1.412       .  A
C3188      C3204   1.448       .  S
C3189      C3190   1.415       .  A
C3190      C3193   1.451       .  S
C3191      C3194   1.411       .  A
C3191      C3198   1.411       .  A
C3192      N3209   1.157       .  T
C3193      N3211   1.157       .  T
C3194      C3195   1.410       .  A
C3194      C3199   1.450       .  S
C3195      C3196   1.413       .  A
C3195      C3201   1.451       .  S
C3196      C3197   1.414       .  A
C3197      C3198   1.410       .  A
C3197      C3200   1.451       .  S
C3198      C3202   1.451       .  S
C3199      N3206   1.157       .  T
C3200      N3207   1.157       .  T
C3201      N3205   1.157       .  T
C3202      N3208   1.157       .  T
C3203      N3212   1.157       .  T
C3204      N3210   1.157       .  T
C3213      C3214   1.409       .  A
C3213      C3218   1.410       .  A
C3213      C3231   1.451       .  S
C3214      C3219   1.492       .  S
C3214      C3215   1.410       .  A
C3215      C3216   1.410       .  A
C3215      C3220   1.451       .  S
C3216      C3217   1.414       .  A
C3216      C3232   1.451       .  S
C3217      C3218   1.415       .  A
C3218      C3221   1.451       .  S
C3219      C3222   1.409       .  A
C3219      C3226   1.409       .  A
C3220      N3237   1.157       .  T
C3221      N3239   1.157       .  T
C3222      C3223   1.410       .  A
C3222      C3227   1.451       .  S
C3223      C3224   1.414       .  A
C3223      C3229   1.448       .  S
C3224      C3225   1.415       .  A
C3225      C3226   1.408       .  A
C3225      C3228   1.451       .  S
C3226      C3230   1.451       .  S
C3227      N3234   1.157       .  T
C3228      N3235   1.157       .  T
C3229      N3233   1.157       .  T
C3230      N3236   1.157       .  T
C3231      N3240   1.157       .  T
C3232      N3238   1.157       .  T
C3241      C3242   1.409       .  A
C3241      C3246   1.411       .  A
C3241      C3259   1.451       .  S
C3242      C3247   1.498       .  S
C3242      C3243   1.410       .  A
C3243      C3244   1.412       .  A
C3243      C3248   1.450       .  S
C3244      C3245   1.414       .  A
C3244      C3260   1.448       .  S
C3245      C3246   1.418       .  A
C3246      C3249   1.451       .  S
C3247      C3250   1.410       .  A
C3247      C3254   1.412       .  A
C3248      N3265   1.157       .  T
C3249      N3267   1.157       .  T
C3250      C3251   1.410       .  A
C3250      C3255   1.451       .  S
C3251      C3252   1.415       .  A
C3251      C3257   1.451       .  S
C3252      C3253   1.414       .  A
C3253      C3254   1.414       .  A
C3253      C3256   1.450       .  S
C3254      C3258   1.450       .  S
C3255      N3262   1.157       .  T
C3256      N3263   1.157       .  T
C3257      N3261   1.157       .  T
C3258      N3264   1.157       .  T
C3259      N3268   1.157       .  T
C3260      N3266   1.157       .  T
C3269      C3270   1.410       .  A
C3269      C3274   1.412       .  A
C3269      C3287   1.451       .  S
C3270      C3275   1.497       .  S
C3270      C3271   1.409       .  A
C3271      C3272   1.410       .  A
C3271      C3276   1.451       .  S
C3272      C3273   1.418       .  A
C3272      C3288   1.451       .  S
C3273      C3274   1.418       .  A
C3274      C3277   1.452       .  S
C3275      C3278   1.408       .  A
C3275      C3282   1.410       .  A
C3276      N3293   1.157       .  T
C3277      N3295   1.158       .  T
C3278      C3279   1.410       .  A
C3278      C3283   1.451       .  S
C3279      C3280   1.419       .  A
C3279      C3285   1.452       .  S
C3280      C3281   1.416       .  A
C3281      C3282   1.413       .  A
C3281      C3284   1.448       .  S
C3282      C3286   1.451       .  S
C3283      N3290   1.157       .  T
C3284      N3291   1.157       .  T
C3285      N3289   1.157       .  T
C3286      N3292   1.157       .  T
C3287      N3296   1.157       .  T
C3288      N3294   1.157       .  T
C3297      C3298   1.407       .  A
C3297      C3302   1.411       .  A
C3297      C3315   1.452       .  S
C3298      C3303   1.496       .  S
C3298      C3299   1.407       .  A
C3299      C3300   1.413       .  A
C3299      C3304   1.452       .  S
C3300      C3301   1.424       .  A
C3300      C3316   1.450       .  S
C3301      C3302   1.422       .  A
C3302      C3305   1.452       .  S
C3303      C3306   1.409       .  A
C3303      C3310   1.410       .  A
C3304      N3321   1.157       .  T
C3305      N3323   1.157       .  T
C3306      C3307   1.410       .  A
C3306      C3311   1.451       .  S
C3307      C3308   1.413       .  A
C3307      C3313   1.448       .  S
C3308      C3309   1.415       .  A
C3309      C3310   1.411       .  A
C3309      C3312   1.451       .  S
C3310      C3314   1.450       .  S
C3311      N3318   1.157       .  T
C3312      N3319   1.157       .  T
C3313      N3317   1.157       .  T
C3314      N3320   1.157       .  T
C3315      N3324   1.157       .  T
C3316      N3322   1.157       .  T
C3325      C3326   1.412       .  A
C3325      C3330   1.409       .  A
C3325      C3343   1.451       .  S
C3326      C3331   1.495       .  S
C3326      C3327   1.413       .  A
C3327      C3328   1.411       .  A
C3327      C3332   1.451       .  S
C3328      C3329   1.411       .  A
C3328      C3344   1.450       .  S
C3329      C3330   1.411       .  A
C3330      C3333   1.450       .  S
C3331      C3334   1.410       .  A
C3331      C3338   1.411       .  A
C3332      N3349   1.157       .  T
C3333      N3351   1.157       .  T
C3334      C3335   1.409       .  A
C3334      C3339   1.451       .  S
C3335      C3336   1.415       .  A
C3335      C3341   1.452       .  S
C3336      C3337   1.412       .  A
C3337      C3338   1.410       .  A
C3337      C3340   1.448       .  S
C3338      C3342   1.451       .  S
C3339      N3346   1.157       .  T
C3340      N3347   1.157       .  T
C3341      N3345   1.157       .  T
C3342      N3348   1.157       .  T
C3343      N3352   1.157       .  T
C3344      N3350   1.157       .  T
C3353      C3354   1.408       .  A
C3353      C3358   1.410       .  A
C3353      C3371   1.451       .  S
C3354      C3359   1.491       .  S
C3354      C3355   1.408       .  A
C3355      C3356   1.408       .  A
C3355      C3360   1.451       .  S
C3356      C3357   1.419       .  A
C3356      C3372   1.453       .  S
C3357      C3358   1.419       .  A
C3358      C3361   1.452       .  S
C3359      C3362   1.409       .  A
C3359      C3366   1.408       .  A
C3360      N3377   1.157       .  T
C3361      N3379   1.158       .  T
C3362      C3363   1.409       .  A
C3362      C3367   1.451       .  S
C3363      C3364   1.415       .  A
C3363      C3369   1.450       .  S
C3364      C3365   1.413       .  A
C3365      C3366   1.409       .  A
C3365      C3368   1.448       .  S
C3366      C3370   1.451       .  S
C3367      N3374   1.157       .  T
C3368      N3375   1.157       .  T
C3369      N3373   1.157       .  T
C3370      N3376   1.157       .  T
C3371      N3380   1.157       .  T
C3372      N3378   1.158       .  T
C3381      C3382   1.410       .  A
C3381      C3386   1.410       .  A
C3381      C3399   1.450       .  S
C3382      C3387   1.494       .  S
C3382      C3383   1.409       .  A
C3383      C3384   1.409       .  A
C3383      C3388   1.451       .  S
C3384      C3385   1.417       .  A
C3384      C3400   1.452       .  S
C3385      C3386   1.412       .  A
C3386      C3389   1.449       .  S
C3387      C3390   1.409       .  A
C3387      C3394   1.409       .  A
C3388      N3405   1.157       .  T
C3389      N3407   1.157       .  T
C3390      C3391   1.411       .  A
C3390      C3395   1.451       .  S
C3391      C3392   1.415       .  A
C3391      C3397   1.449       .  S
C3392      C3393   1.417       .  A
C3393      C3394   1.410       .  A
C3393      C3396   1.450       .  S
C3394      C3398   1.451       .  S
C3395      N3402   1.157       .  T
C3396      N3403   1.157       .  T
C3397      N3401   1.157       .  T
C3398      N3404   1.157       .  T
C3399      N3408   1.157       .  T
C3400      N3406   1.157       .  T
C3409      C3410   1.412       .  A
C3409      C3414   1.412       .  A
C3409      C3427   1.450       .  S
C3410      C3415   1.497       .  S
C3410      C3411   1.410       .  A
C3411      C3412   1.411       .  A
C3411      C3416   1.451       .  S
C3412      C3413   1.415       .  A
C3412      C3428   1.451   1_556  S
C3413      C3414   1.413       .  A
C3414      C3417   1.451       .  S
C3415      C3418   1.410       .  A
C3415      C3422   1.409       .  A
C3416      N3433   1.157   1_556  T
C3417      N3435   1.157       .  T
C3418      C3419   1.411       .  A
C3418      C3423   1.451       .  S
C3419      C3420   1.416       .  A
C3419      C3425   1.451       .  S
C3420      C3421   1.414       .  A
C3421      C3422   1.412       .  A
C3421      C3424   1.448       .  S
C3422      C3426   1.451       .  S
C3423      N3430   1.157       .  T
C3424      N3431   1.157       .  T
C3425      N3429   1.157       .  T
C3426      N3432   1.157       .  T
C3427      N3436   1.157       .  T
C3428      N3434   1.157       .  T
C3437      C3438   1.410       .  A
C3437      C3442   1.411       .  A
C3437      C3455   1.451       .  S
C3438      C3443   1.499       .  S
C3438      C3439   1.409       .  A
C3439      C3440   1.412       .  A
C3439      C3444   1.451       .  S
C3440      C3441   1.420       .  A
C3440      C3456   1.452       .  S
C3441      C3442   1.418       .  A
C3442      C3445   1.450       .  S
C3443      C3446   1.409       .  A
C3443      C3450   1.409       .  A
C3444      N3461   1.157       .  T
C3445      N3463   1.157       .  T
C3446      C3447   1.413       .  A
C3446      C3451   1.452       .  S
C3447      C3448   1.417       .  A
C3447      C3453   1.447       .  S
C3448      C3449   1.418       .  A
C3449      C3450   1.411       .  A
C3449      C3452   1.451       .  S
C3450      C3454   1.451       .  S
C3451      N3458   1.157       .  T
C3452      N3459   1.157       .  T
C3453      N3457   1.157       .  T
C3454      N3460   1.157       .  T
C3455      N3464   1.157       .  T
C3456      N3462   1.158       .  T
C3465      C3466   1.409       .  A
C3465      C3470   1.409       .  A
C3465      C3483   1.451       .  S
C3466      C3471   1.496       .  S
C3466      C3467   1.411       .  A
C3467      C3468   1.409       .  A
C3467      C3472   1.452       .  S
C3468      C3469   1.414       .  A
C3468      C3484   1.448       .  S
C3469      C3470   1.418       .  A
C3470      C3473   1.452       .  S
C3471      C3474   1.409       .  A
C3471      C3478   1.408       .  A
C3472      N3489   1.157       .  T
C3473      N3491   1.157       .  T
C3474      C3475   1.412       .  A
C3474      C3479   1.452       .  S
C3475      C3476   1.422       .  A
C3475      C3481   1.451       .  S
C3476      C3477   1.423       .  A
C3477      C3478   1.409       .  A
C3477      C3480   1.451       .  S
C3478      C3482   1.453       .  S
C3479      N3486   1.157       .  T
C3480      N3487   1.157       .  T
C3481      N3485   1.157       .  T
C3482      N3488   1.157       .  T
C3483      N3492   1.157       .  T
C3484      N3490   1.157       .  T
C3493      C3494   1.410       .  A
C3493      C3498   1.409       .  A
C3493      C3511   1.451       .  S
C3494      C3499   1.496       .  S
C3494      C3495   1.412       .  A
C3495      C3496   1.411       .  A
C3495      C3500   1.451       .  S
C3496      C3497   1.413       .  A
C3496      C3512   1.451       .  S
C3497      C3498   1.413       .  A
C3498      C3501   1.450       .  S
C3499      C3502   1.410       .  A
C3499      C3506   1.409       .  A
C3500      N3517   1.157       .  T
C3501      N3519   1.157       .  T
C3502      C3503   1.410       .  A
C3502      C3507   1.451       .  S
C3503      C3504   1.413       .  A
C3503      C3509   1.448       .  S
C3504      C3505   1.418       .  A
C3505      C3506   1.410       .  A
C3505      C3508   1.451       .  S
C3506      C3510   1.451       .  S
C3507      N3514   1.157       .  T
C3508      N3515   1.157       .  T
C3509      N3513   1.157       .  T
C3510      N3516   1.157       .  T
C3511      N3520   1.157       .  T
C3512      N3518   1.157   1_554  T
C3521      C3522   1.410       .  A
C3521      C3526   1.412       .  A
C3521      C3539   1.450       .  S
C3522      C3527   1.498       .  S
C3522      C3523   1.409       .  A
C3523      C3524   1.411       .  A
C3523      C3528   1.451       .  S
C3524      C3525   1.414       .  A
C3524      C3540   1.447       .  S
C3525      C3526   1.417       .  A
C3526      C3529   1.451       .  S
C3527      C3530   1.411       .  A
C3527      C3534   1.410       .  A
C3528      N3545   1.157       .  T
C3529      N3547   1.157       .  T
C3530      C3531   1.412       .  A
C3530      C3535   1.451       .  S
C3531      C3532   1.417       .  A
C3531      C3537   1.451       .  S
C3532      C3533   1.418       .  A
C3533      C3534   1.412       .  A
C3533      C3536   1.452       .  S
C3534      C3538   1.450       .  S
C3535      N3542   1.157       .  T
C3536      N3543   1.158       .  T
C3537      N3541   1.157       .  T
C3538      N3544   1.157       .  T
C3539      N3548   1.157       .  T
C3540      N3546   1.157       .  T
C3549      C3550   1.412       .  A
C3549      C3554   1.411       .  A
C3549      C3567   1.451       .  S
C3550      C3555   1.498       .  S
C3550      C3551   1.411       .  A
C3551      C3552   1.409       .  A
C3551      C3556   1.451       .  S
C3552      C3553   1.415       .  A
C3552      C3568   1.452       .  S
C3553      C3554   1.413       .  A
C3554      C3557   1.449       .  S
C3555      C3558   1.412       .  A
C3555      C3562   1.414       .  A
C3556      N3573   1.157       .  T
C3557      N3575   1.157       .  T
C3558      C3559   1.409       .  A
C3558      C3563   1.451       .  S
C3559      C3560   1.412       .  A
C3559      C3565   1.450       .  S
C3560      C3561   1.412       .  A
C3561      C3562   1.411       .  A
C3561      C3564   1.451       .  S
C3562      C3566   1.450       .  S
C3563      N3570   1.157       .  T
C3564      N3571   1.157       .  T
C3565      N3569   1.157   1_556  T
C3566      N3572   1.157       .  T
C3567      N3576   1.157       .  T
C3568      N3574   1.157       .  T
C3577      C3578   1.407       .  A
C3577      C3582   1.410       .  A
C3577      C3595   1.452       .  S
C3578      C3583   1.489       .  S
C3578      C3579   1.407       .  A
C3579      C3580   1.409       .  A
C3579      C3584   1.453       .  S
C3580      C3581   1.422       .  A
C3580      C3596   1.452       .  S
C3581      C3582   1.421       .  A
C3582      C3585   1.452       .  S
C3583      C3586   1.408       .  A
C3583      C3590   1.407       .  A
C3584      N3601   1.157       .  T
C3585      N3603   1.158       .  T
C3586      C3587   1.409       .  A
C3586      C3591   1.451       .  S
C3587      C3588   1.414       .  A
C3587      C3593   1.448       .  S
C3588      C3589   1.414       .  A
C3589      C3590   1.407       .  A
C3589      C3592   1.447       .  S
C3590      C3594   1.451       .  S
C3591      N3598   1.157       .  T
C3592      N3599   1.157       .  T
C3593      N3597   1.157       .  T
C3594      N3600   1.157       .  T
C3595      N3604   1.157       .  T
C3596      N3602   1.158       .  T
C3605      C3606   1.406       .  A
C3605      C3610   1.406       .  A
C3605      C3623   1.452       .  S
C3606      C3611   1.487       .  S
C3606      C3607   1.408       .  A
C3607      C3608   1.409       .  A
C3607      C3612   1.452       .  S
C3608      C3609   1.419       .  A
C3608      C3624   1.452       .  S
C3609      C3610   1.419       .  A
C3610      C3613   1.452       .  S
C3611      C3614   1.406       .  A
C3611      C3618   1.408       .  A
C3612      N3629   1.157       .  T
C3613      N3631   1.158       .  T
C3614      C3615   1.405       .  A
C3614      C3619   1.452       .  S
C3615      C3616   1.414       .  A
C3615      C3621   1.447       .  S
C3616      C3617   1.414       .  A
C3617      C3618   1.409       .  A
C3617      C3620   1.448       .  S
C3618      C3622   1.451       .  S
C3619      N3626   1.157       .  T
C3620      N3627   1.157       .  T
C3621      N3625   1.157       .  T
C3622      N3628   1.157       .  T
C3623      N3632   1.157       .  T
C3624      N3630   1.158       .  T
C3633      C3634   1.406       .  A
C3633      C3638   1.410       .  A
C3633      C3651   1.452       .  S
C3634      C3639   1.494       .  S
C3634      C3635   1.409       .  A
C3635      C3636   1.411       .  A
C3635      C3640   1.450       .  S
C3636      C3637   1.420       .  A
C3636      C3652   1.452       .  S
C3637      C3638   1.424       .  A
C3638      C3641   1.452       .  S
C3639      C3642   1.407       .  A
C3639      C3646   1.409       .  A
C3640      N3657   1.156       .  T
C3641      N3659   1.158       .  T
C3642      C3643   1.409       .  A
C3642      C3647   1.451       .  S
C3643      C3644   1.415       .  A
C3643      C3649   1.447       .  S
C3644      C3645   1.415       .  A
C3645      C3646   1.410       .  A
C3645      C3648   1.448       .  S
C3646      C3650   1.451       .  S
C3647      N3654   1.157       .  T
C3648      N3655   1.157       .  T
C3649      N3653   1.157       .  T
C3650      N3656   1.157       .  T
C3651      N3660   1.157       .  T
C3652      N3658   1.158       .  T
C3661      C3662   1.408       .  A
C3661      C3666   1.408       .  A
C3661      C3679   1.452       .  S
C3662      C3667   1.490       .  S
C3662      C3663   1.408       .  A
C3663      C3664   1.410       .  A
C3663      C3668   1.451       .  S
C3664      C3665   1.420       .  A
C3664      C3680   1.452       .  S
C3665      C3666   1.418       .  A
C3666      C3669   1.452       .  S
C3667      C3670   1.408       .  A
C3667      C3674   1.407       .  A
C3668      N3685   1.157       .  T
C3669      N3687   1.158       .  T
C3670      C3671   1.407       .  A
C3670      C3675   1.452       .  S
C3671      C3672   1.415       .  A
C3671      C3677   1.447       .  S
C3672      C3673   1.415       .  A
C3673      C3674   1.409       .  A
C3673      C3676   1.447       .  S
C3674      C3678   1.451       .  S
C3675      N3682   1.157       .  T
C3676      N3683   1.157       .  T
C3677      N3681   1.157       .  T
C3678      N3684   1.157       .  T
C3679      N3688   1.157       .  T
C3680      N3686   1.158       .  T
C3689      C3690   1.408       .  A
C3689      C3694   1.410       .  A
C3689      C3707   1.451       .  S
C3690      C3695   1.492   1_556  S
C3690      C3691   1.408       .  A
C3691      C3692   1.411       .  A
C3691      C3696   1.451       .  S
C3692      C3693   1.418       .  A
C3692      C3708   1.451       .  S
C3693      C3694   1.418       .  A
C3694      C3697   1.451       .  S
C3695      C3698   1.408       .  A
C3695      C3702   1.408       .  A
C3696      N3713   1.157       .  T
C3697      N3715   1.157       .  T
C3698      C3699   1.408       .  A
C3698      C3703   1.451       .  S
C3699      C3700   1.414       .  A
C3699      C3705   1.448       .  S
C3700      C3701   1.416       .  A
C3701      C3702   1.410       .  A
C3701      C3704   1.448       .  S
C3702      C3706   1.451       .  S
C3703      N3710   1.157   1_554  T
C3704      N3711   1.157       .  T
C3705      N3709   1.157       .  T
C3706      N3712   1.157   1_554  T
C3707      N3716   1.157       .  T
C3708      N3714   1.157       .  T
C3717      C3718   1.407       .  A
C3717      C3722   1.409       .  A
C3717      C3735   1.452       .  S
C3718      C3723   1.487       .  S
C3718      C3719   1.406       .  A
C3719      C3720   1.407       .  A
C3719      C3724   1.453       .  S
C3720      C3721   1.422       .  A
C3720      C3736   1.452       .  S
C3721      C3722   1.421       .  A
C3722      C3725   1.452       .  S
C3723      C3726   1.407       .  A
C3723      C3730   1.407       .  A
C3724      N3741   1.157       .  T
C3725      N3743   1.158       .  T
C3726      C3727   1.407       .  A
C3726      C3731   1.451       .  S
C3727      C3728   1.414       .  A
C3727      C3733   1.447       .  S
C3728      C3729   1.413       .  A
C3729      C3730   1.406       .  A
C3729      C3732   1.448       .  S
C3730      C3734   1.451       .  S
C3731      N3738   1.157       .  T
C3732      N3739   1.157       .  T
C3733      N3737   1.157       .  T
C3734      N3740   1.157       .  T
C3735      N3744   1.157       .  T
C3736      N3742   1.158       .  T
C3745      C3746   1.411       .  A
C3745      C3750   1.412       .  A
C3745      C3763   1.450       .  S
C3746      C3751   1.495       .  S
C3746      C3747   1.409       .  A
C3747      C3748   1.408       .  A
C3747      C3752   1.452       .  S
C3748      C3749   1.417       .  A
C3748      C3764   1.452       .  S
C3749      C3750   1.416       .  A
C3750      C3753   1.451       .  S
C3751      C3754   1.409       .  A
C3751      C3758   1.410       .  A
C3752      N3769   1.157       .  T
C3753      N3771   1.158       .  T
C3754      C3755   1.410       .  A
C3754      C3759   1.451       .  S
C3755      C3756   1.414       .  A
C3755      C3761   1.447       .  S
C3756      C3757   1.417       .  A
C3757      C3758   1.409       .  A
C3757      C3760   1.451       .  S
C3758      C3762   1.452       .  S
C3759      N3766   1.157       .  T
C3760      N3767   1.157       .  T
C3761      N3765   1.157       .  T
C3762      N3768   1.157       .  T
C3763      N3772   1.157       .  T
C3764      N3770   1.157       .  T
C3773      C3774   1.409       .  A
C3773      C3778   1.410       .  A
C3773      C3791   1.451       .  S
C3774      C3779   1.494       .  S
C3774      C3775   1.408       .  A
C3775      C3776   1.410       .  A
C3775      C3780   1.451       .  S
C3776      C3777   1.418       .  A
C3776      C3792   1.451       .  S
C3777      C3778   1.414       .  A
C3778      C3781   1.447       .  S
C3779      C3782   1.409       .  A
C3779      C3786   1.408       .  A
C3780      N3797   1.157       .  T
C3781      N3799   1.157       .  T
C3782      C3783   1.410       .  A
C3782      C3787   1.451       .  S
C3783      C3784   1.418       .  A
C3783      C3789   1.452       .  S
C3784      C3785   1.420       .  A
C3785      C3786   1.411       .  A
C3785      C3788   1.452       .  S
C3786      C3790   1.452       .  S
C3787      N3794   1.157       .  T
C3788      N3795   1.158       .  T
C3789      N3793   1.158       .  T
C3790      N3796   1.157       .  T
C3791      N3800   1.157       .  T
C3792      N3798   1.157       .  T
C3801      C3802   1.410       .  A
C3801      C3806   1.410       .  A
C3801      C3819   1.450       .  S
C3802      C3807   1.495       .  S
C3802      C3803   1.411       .  A
C3803      C3804   1.412       .  A
C3803      C3808   1.451       .  S
C3804      C3805   1.414       .  A
C3804      C3820   1.450       .  S
C3805      C3806   1.413       .  A
C3806      C3809   1.451       .  S
C3807      C3810   1.409       .  A
C3807      C3814   1.409       .  A
C3808      N3825   1.157       .  T
C3809      N3827   1.157       .  T
C3810      C3811   1.410       .  A
C3810      C3815   1.450       .  S
C3811      C3812   1.416       .  A
C3811      C3817   1.451       .  S
C3812      C3813   1.414       .  A
C3813      C3814   1.410       .  A
C3813      C3816   1.448       .  S
C3814      C3818   1.451       .  S
C3815      N3822   1.157       .  T
C3816      N3823   1.157       .  T
C3817      N3821   1.157       .  T
C3818      N3824   1.157       .  T
C3819      N3828   1.157       .  T
C3820      N3826   1.157       .  T
C3829      C3830   1.409       .  A
C3829      C3834   1.408       .  A
C3829      C3847   1.451       .  S
C3830      C3835   1.489       .  S
C3830      C3831   1.410       .  A
C3831      C3832   1.409       .  A
C3831      C3836   1.451       .  S
C3832      C3833   1.413       .  A
C3832      C3848   1.451       .  S
C3833      C3834   1.414       .  A
C3834      C3837   1.452       .  S
C3835      C3838   1.407       .  A
C3835      C3842   1.409       .  A
C3836      N3853   1.157       .  T
C3837      N3855   1.157       .  T
C3838      C3839   1.406       .  A
C3838      C3843   1.451       .  S
C3839      C3840   1.417       .  A
C3839      C3845   1.452       .  S
C3840      C3841   1.413       .  A
C3841      C3842   1.410       .  A
C3841      C3844   1.449       .  S
C3842      C3846   1.451       .  S
C3843      N3850   1.157       .  T
C3844      N3851   1.157       .  T
C3845      N3849   1.157       .  T
C3846      N3852   1.157       .  T
C3847      N3856   1.157       .  T
C3848      N3854   1.157       .  T
C3857      C3858   1.409       .  A
C3857      C3862   1.412       .  A
C3857      C3875   1.451       .  S
C3858      C3863   1.497       .  S
C3858      C3859   1.410       .  A
C3859      C3860   1.411       .  A
C3859      C3864   1.451       .  S
C3860      C3861   1.417       .  A
C3860      C3876   1.451       .  S
C3861      C3862   1.419       .  A
C3862      C3865   1.452       .  S
C3863      C3866   1.408       .  A
C3863      C3870   1.409       .  A
C3864      N3881   1.157       .  T
C3865      N3883   1.158       .  T
C3866      C3867   1.410       .  A
C3866      C3871   1.451       .  S
C3867      C3868   1.418       .  A
C3867      C3873   1.451       .  S
C3868      C3869   1.415       .  A
C3869      C3870   1.412       .  A
C3869      C3872   1.448       .  S
C3870      C3874   1.451       .  S
C3871      N3878   1.157       .  T
C3872      N3879   1.157       .  T
C3873      N3877   1.157       .  T
C3874      N3880   1.157       .  T
C3875      N3884   1.157       .  T
C3876      N3882   1.157       .  T
C3885      C3886   1.410       .  A
C3885      C3890   1.408       .  A
C3885      C3903   1.451       .  S
C3886      C3891   1.490       .  S
C3886      C3887   1.410       .  A
C3887      C3888   1.409       .  A
C3887      C3892   1.451       .  S
C3888      C3889   1.413       .  A
C3888      C3904   1.451       .  S
C3889      C3890   1.411       .  A
C3890      C3893   1.451       .  S
C3891      C3894   1.408       .  A
C3891      C3898   1.409       .  A
C3892      N3909   1.157       .  T
C3893      N3911   1.157       .  T
C3894      C3895   1.407       .  A
C3894      C3899   1.451       .  S
C3895      C3896   1.416       .  A
C3895      C3901   1.452       .  S
C3896      C3897   1.413       .  A
C3897      C3898   1.410       .  A
C3897      C3900   1.448       .  S
C3898      C3902   1.451       .  S
C3899      N3906   1.157       .  T
C3900      N3907   1.157       .  T
C3901      N3905   1.157       .  T
C3902      N3908   1.157       .  T
C3903      N3912   1.157       .  T
C3904      N3910   1.157       .  T
C3913      C3914   1.412       .  A
C3913      C3918   1.413       .  A
C3913      C3931   1.451       .  S
C3914      C3919   1.499       .  S
C3914      C3915   1.412       .  A
C3915      C3916   1.411       .  A
C3915      C3920   1.450       .  S
C3916      C3917   1.413       .  A
C3916      C3932   1.451       .  S
C3917      C3918   1.414       .  A
C3918      C3921   1.451       .  S
C3919      C3922   1.410       .  A
C3919      C3926   1.410       .  A
C3920      N3937   1.157       .  T
C3921      N3939   1.157       .  T
C3922      C3923   1.410       .  A
C3922      C3927   1.451       .  S
C3923      C3924   1.416       .  A
C3923      C3929   1.451       .  S
C3924      C3925   1.415       .  A
C3925      C3926   1.414       .  A
C3925      C3928   1.448       .  S
C3926      C3930   1.451       .  S
C3927      N3934   1.157       .  T
C3928      N3935   1.157       .  T
C3929      N3933   1.157       .  T
C3930      N3936   1.157       .  T
C3931      N3940   1.157       .  T
C3932      N3938   1.157       .  T
C3941      C3942   1.411       .  A
C3941      C3946   1.411       .  A
C3941      C3959   1.451       .  S
C3942      C3947   1.499       .  S
C3942      C3943   1.412       .  A
C3943      C3944   1.413       .  A
C3943      C3948   1.450       .  S
C3944      C3945   1.414       .  A
C3944      C3960   1.451       .  S
C3945      C3946   1.413       .  A
C3946      C3949   1.451       .  S
C3947      C3950   1.409       .  A
C3947      C3954   1.409       .  A
C3948      N3965   1.157       .  T
C3949      N3967   1.157       .  T
C3950      C3951   1.413       .  A
C3950      C3955   1.450       .  S
C3951      C3952   1.419       .  A
C3951      C3957   1.451       .  S
C3952      C3953   1.415       .  A
C3953      C3954   1.412       .  A
C3953      C3956   1.447       .  S
C3954      C3958   1.451       .  S
C3955      N3962   1.157       .  T
C3956      N3963   1.157       .  T
C3957      N3961   1.157       .  T
C3958      N3964   1.157       .  T
C3959      N3968   1.157       .  T
C3960      N3966   1.157       .  T
C3969      C3970   1.407       .  A
C3969      C3974   1.412       .  A
C3969      C3987   1.452       .  S
C3970      C3975   1.495       .  S
C3970      C3971   1.407       .  A
C3971      C3972   1.410       .  A
C3971      C3976   1.451       .  S
C3972      C3973   1.422       .  A
C3972      C3988   1.452       .  S
C3973      C3974   1.425       .  A
C3974      C3977   1.450       .  S
C3975      C3978   1.408       .  A
C3975      C3982   1.409       .  A
C3976      N3993   1.157       .  T
C3977      N3995   1.157       .  T
C3978      C3979   1.411       .  A
C3978      C3983   1.451       .  S
C3979      C3980   1.415       .  A
C3979      C3985   1.448       .  S
C3980      C3981   1.418       .  A
C3981      C3982   1.410       .  A
C3981      C3984   1.451       .  S
C3982      C3986   1.451       .  S
C3983      N3990   1.157       .  T
C3984      N3991   1.157       .  T
C3985      N3989   1.157       .  T
C3986      N3992   1.157       .  T
C3987      N3996   1.157       .  T
C3988      N3994   1.158       .  T
C3997      C3998   1.410       .  A
C3997      C4002   1.411       .  A
C3997      C4015   1.451       .  S
C3998      C4003   1.495       .  S
C3998      C3999   1.408       .  A
C3999      C4000   1.411       .  A
C3999      C4004   1.451       .  S
C4000      C4001   1.418       .  A
C4000      C4016   1.450       .  S
C4001      C4002   1.416       .  A
C4002      C4005   1.450       .  S
C4003      C4006   1.409       .  A
C4003      C4010   1.408       .  A
C4004      N4021   1.157       .  T
C4005      N4023   1.157       .  T
C4006      C4007   1.410       .  A
C4006      C4011   1.451       .  S
C4007      C4008   1.414       .  A
C4007      C4013   1.448       .  S
C4008      C4009   1.418       .  A
C4009      C4010   1.410       .  A
C4009      C4012   1.451       .  S
C4010      C4014   1.451       .  S
C4011      N4018   1.157       .  T
C4012      N4019   1.157       .  T
C4013      N4017   1.157       .  T
C4014      N4020   1.157       .  T
C4015      N4024   1.157       .  T
C4016      N4022   1.157       .  T
C4025      C4026   1.411       .  A
C4025      C4030   1.412       .  A
C4025      C4043   1.450       .  S
C4026      C4031   1.501       .  S
C4026      C4027   1.413       .  A
C4027      C4028   1.410       .  A
C4027      C4032   1.452       .  S
C4028      C4029   1.418       .  A
C4028      C4044   1.452       .  S
C4029      C4030   1.420       .  A
C4030      C4033   1.452       .  S
C4031      C4034   1.414       .  A
C4031      C4038   1.414       .  A
C4032      N4049   1.157       .  T
C4033      N4051   1.158       .  T
C4034      C4035   1.406       .  A
C4034      C4039   1.451       .  S
C4035      C4036   1.407       .  A
C4035      C4041   1.449       .  S
C4036      C4037   1.412       .  A
C4037      C4038   1.413       .  A
C4037      C4040   1.449       .  S
C4038      C4042   1.450       .  S
C4039      N4046   1.157       .  T
C4040      N4047   1.157       .  T
C4041      N4045   1.157       .  T
C4042      N4048   1.157       .  T
C4043      N4052   1.157       .  T
C4044      N4050   1.157       .  T
C4053      C4054   1.412       .  A
C4053      C4058   1.412       .  A
C4053      C4071   1.450       .  S
C4054      C4059   1.498       .  S
C4054      C4055   1.411       .  A
C4055      C4056   1.412       .  A
C4055      C4060   1.451       .  S
C4056      C4057   1.413       .  A
C4056      C4072   1.451       .  S
C4057      C4058   1.412       .  A
C4058      C4061   1.450       .  S
C4059      C4062   1.410       .  A
C4059      C4066   1.409       .  A
C4060      N4077   1.157       .  T
C4061      N4079   1.157       .  T
C4062      C4063   1.411       .  A
C4062      C4067   1.451       .  S
C4063      C4064   1.413       .  A
C4063      C4069   1.448       .  S
C4064      C4065   1.417       .  A
C4065      C4066   1.411       .  A
C4065      C4068   1.451       .  S
C4066      C4070   1.450       .  S
C4067      N4074   1.157       .  T
C4068      N4075   1.157       .  T
C4069      N4073   1.157       .  T
C4070      N4076   1.157       .  T
C4071      N4080   1.157       .  T
C4072      N4078   1.157       .  T
C4081      C4082   1.409       .  A
C4081      C4086   1.408       .  A
C4081      C4099   1.451       .  S
C4082      C4087   1.492       .  S
C4082      C4083   1.409       .  A
C4083      C4084   1.410       .  A
C4083      C4088   1.451       .  S
C4084      C4085   1.414       .  A
C4084      C4100   1.448       .  S
C4085      C4086   1.416       .  A
C4086      C4089   1.451       .  S
C4087      C4090   1.406       .  A
C4087      C4094   1.405       .  A
C4088      N4105   1.157       .  T
C4089      N4107   1.157       .  T
C4090      C4091   1.410       .  A
C4090      C4095   1.452       .  S
C4091      C4092   1.426       .  A
C4091      C4097   1.452       .  S
C4092      C4093   1.426       .  A
C4093      C4094   1.410       .  A
C4093      C4096   1.451       .  S
C4094      C4098   1.453       .  S
C4095      N4102   1.157       .  T
C4096      N4103   1.157       .  T
C4097      N4101   1.158       .  T
C4098      N4104   1.157       .  T
C4099      N4108   1.157       .  T
C4100      N4106   1.157       .  T
C4109      C4110   1.410       .  A
C4109      C4114   1.411       .  A
C4109      C4127   1.450       .  S
C4110      C4115   1.501       .  S
C4110      C4111   1.411       .  A
C4111      C4112   1.413       .  A
C4111      C4116   1.451       .  S
C4112      C4113   1.415       .  A
C4112      C4128   1.448       .  S
C4113      C4114   1.417       .  A
C4114      C4117   1.451       .  S
C4115      C4118   1.410       .  A
C4115      C4122   1.408       .  A
C4116      N4133   1.157       .  T
C4117      N4135   1.157       .  T
C4118      C4119   1.413       .  A
C4118      C4123   1.452       .  S
C4119      C4120   1.423       .  A
C4119      C4125   1.451       .  S
C4120      C4121   1.424       .  A
C4121      C4122   1.413       .  A
C4121      C4124   1.452       .  S
C4122      C4126   1.452       .  S
C4123      N4130   1.157       .  T
C4124      N4131   1.158       .  T
C4125      N4129   1.158       .  T
C4126      N4132   1.157       .  T
C4127      N4136   1.157       .  T
C4128      N4134   1.157       .  T
C4137      C4138   1.410       .  A
C4137      C4142   1.410       .  A
C4137      C4155   1.450       .  S
C4138      C4143   1.494       .  S
C4138      C4139   1.410       .  A
C4139      C4140   1.410       .  A
C4139      C4144   1.451       .  S
C4140      C4141   1.414       .  A
C4140      C4156   1.451       .  S
C4141      C4142   1.414       .  A
C4142      C4145   1.451       .  S
C4143      C4146   1.410       .  A
C4143      C4150   1.408       .  A
C4144      N4161   1.157       .  T
C4145      N4163   1.157       .  T
C4146      C4147   1.411       .  A
C4146      C4151   1.450       .  S
C4147      C4148   1.414       .  A
C4147      C4153   1.448       .  S
C4148      C4149   1.418       .  A
C4149      C4150   1.409       .  A
C4149      C4152   1.452       .  S
C4150      C4154   1.451       .  S
C4151      N4158   1.157       .  T
C4152      N4159   1.157       .  T
C4153      N4157   1.157       .  T
C4154      N4160   1.157       .  T
C4155      N4164   1.157       .  T
C4156      N4162   1.157       .  T
C4165      C4166   1.411       .  A
C4165      C4170   1.411       .  A
C4165      C4183   1.451       .  S
C4166      C4171   1.497       .  S
C4166      C4167   1.410       .  A
C4167      C4168   1.411       .  A
C4167      C4172   1.451       .  S
C4168      C4169   1.417       .  A
C4168      C4184   1.450       .  S
C4169      C4170   1.417       .  A
C4170      C4173   1.451       .  S
C4171      C4174   1.410       .  A
C4171      C4178   1.410       .  A
C4172      N4189   1.157       .  T
C4173      N4191   1.157       .  T
C4174      C4175   1.411       .  A
C4174      C4179   1.451       .  S
C4175      C4176   1.414       .  A
C4175      C4181   1.448       .  S
C4176      C4177   1.417       .  A
C4177      C4178   1.410       .  A
C4177      C4180   1.451       .  S
C4178      C4182   1.451       .  S
C4179      N4186   1.157       .  T
C4180      N4187   1.157       .  T
C4181      N4185   1.157       .  T
C4182      N4188   1.157       .  T
C4183      N4192   1.157       .  T
C4184      N4190   1.157       .  T
C4193      C4194   1.410       .  A
C4193      C4198   1.411       .  A
C4193      C4211   1.451       .  S
C4194      C4199   1.496       .  S
C4194      C4195   1.411       .  A
C4195      C4196   1.411       .  A
C4195      C4200   1.451       .  S
C4196      C4197   1.414       .  A
C4196      C4212   1.451       .  S
C4197      C4198   1.415       .  A
C4198      C4201   1.452       .  S
C4199      C4202   1.410       .  A
C4199      C4206   1.410       .  A
C4200      N4217   1.157       .  T
C4201      N4219   1.157       .  T
C4202      C4203   1.410       .  A
C4202      C4207   1.451       .  S
C4203      C4204   1.416       .  A
C4203      C4209   1.452       .  S
C4204      C4205   1.414       .  A
C4205      C4206   1.411       .  A
C4205      C4208   1.448       .  S
C4206      C4210   1.451       .  S
C4207      N4214   1.157       .  T
C4208      N4215   1.157       .  T
C4209      N4213   1.157       .  T
C4210      N4216   1.157       .  T
C4211      N4220   1.157       .  T
C4212      N4218   1.157       .  T
C4221      C4222   1.410       .  A
C4221      C4226   1.408       .  A
C4221      C4239   1.451       .  S
C4222      C4227   1.491       .  S
C4222      C4223   1.411       .  A
C4223      C4224   1.410       .  A
C4223      C4228   1.450       .  S
C4224      C4225   1.411       .  A
C4224      C4240   1.451       .  S
C4225      C4226   1.412       .  A
C4226      C4229   1.451       .  S
C4227      C4230   1.408       .  A
C4227      C4234   1.409       .  A
C4228      N4245   1.157       .  T
C4229      N4247   1.157       .  T
C4230      C4231   1.410       .  A
C4230      C4235   1.451       .  S
C4231      C4232   1.413       .  A
C4231      C4237   1.448       .  S
C4232      C4233   1.416       .  A
C4233      C4234   1.409       .  A
C4233      C4236   1.451       .  S
C4234      C4238   1.451       .  S
C4235      N4242   1.157       .  T
C4236      N4243   1.157       .  T
C4237      N4241   1.157       .  T
C4238      N4244   1.157       .  T
C4239      N4248   1.157       .  T
C4240      N4246   1.157       .  T
C4249      C4250   1.412       .  A
C4249      C4254   1.411       .  A
C4249      C4267   1.451       .  S
C4250      C4255   1.501       .  S
C4250      C4251   1.413       .  A
C4251      C4252   1.414       .  A
C4251      C4256   1.451       .  S
C4252      C4253   1.414       .  A
C4252      C4268   1.451       .  S
C4253      C4254   1.412       .  A
C4254      C4257   1.449       .  S
C4255      C4258   1.411       .  A
C4255      C4262   1.412       .  A
C4256      N4273   1.157       .  T
C4257      N4275   1.157       .  T
C4258      C4259   1.412       .  A
C4258      C4263   1.450       .  S
C4259      C4260   1.417       .  A
C4259      C4265   1.451       .  S
C4260      C4261   1.413       .  A
C4261      C4262   1.411       .  A
C4261      C4264   1.448       .  S
C4262      C4266   1.451       .  S
C4263      N4270   1.157       .  T
C4264      N4271   1.157       .  T
C4265      N4269   1.157       .  T
C4266      N4272   1.157       .  T
C4267      N4276   1.157       .  T
C4268      N4274   1.157       .  T
C4277      C4278   1.409       .  A
C4277      C4282   1.412       .  A
C4277      C4295   1.452       .  S
C4278      C4283   1.500       .  S
C4278      C4279   1.407       .  A
C4279      C4280   1.415       .  A
C4279      C4284   1.452   1_655  S
C4280      C4281   1.426       .  A
C4280      C4296   1.451   1_655  S
C4281      C4282   1.422       .  A
C4282      C4285   1.451       .  S
C4283      C4286   1.410       .  A
C4283      C4290   1.410       .  A
C4284      N4301   1.157       .  T
C4285      N4303   1.157       .  T
C4286      C4287   1.410       .  A
C4286      C4291   1.451       .  S
C4287      C4288   1.416       .  A
C4287      C4293   1.451       .  S
C4288      C4289   1.415       .  A
C4289      C4290   1.414       .  A
C4289      C4292   1.448       .  S
C4290      C4294   1.450       .  S
C4291      N4298   1.157       .  T
C4292      N4299   1.157       .  T
C4293      N4297   1.157       .  T
C4294      N4300   1.157       .  T
C4295      N4304   1.157       .  T
C4296      N4302   1.158       .  T
C4305      C4306   1.406       .  A
C4305      C4310   1.412       .  A
C4305      C4323   1.453       .  S
C4306      C4311   1.496       .  S
C4306      C4307   1.406       .  A
C4307      C4308   1.413       .  A
C4307      C4312   1.452       .  S
C4308      C4309   1.427       .  A
C4308      C4324   1.452   1_565  S
C4309      C4310   1.427       .  A
C4310      C4313   1.451       .  S
C4311      C4314   1.410       .  A
C4311      C4318   1.409       .  A
C4312      N4329   1.157   1_565  T
C4313      N4331   1.157       .  T
C4314      C4315   1.411       .  A
C4314      C4319   1.450       .  S
C4315      C4316   1.416       .  A
C4315      C4321   1.451       .  S
C4316      C4317   1.413       .  A
C4317      C4318   1.409       .  A
C4317      C4320   1.448       .  S
C4318      C4322   1.451       .  S
C4319      N4326   1.157       .  T
C4320      N4327   1.157       .  T
C4321      N4325   1.157       .  T
C4322      N4328   1.157       .  T
C4323      N4332   1.157       .  T
C4324      N4330   1.158       .  T
C4333      C4334   1.413       .  A
C4333      C4338   1.416       .  A
C4333      C4351   1.450       .  S
C4334      C4339   1.508       .  S
C4334      C4335   1.412       .  A
C4335      C4336   1.415       .  A
C4335      C4340   1.450       .  S
C4336      C4337   1.415       .  A
C4336      C4352   1.450       .  S
C4337      C4338   1.417       .  A
C4338      C4341   1.451   1_554  S
C4339      C4342   1.412       .  A
C4339      C4346   1.411       .  A
C4340      N4357   1.157       .  T
C4341      N4359   1.157       .  T
C4342      C4343   1.416       .  A
C4342      C4347   1.450       .  S
C4343      C4344   1.415       .  A
C4343      C4349   1.448       .  S
C4344      C4345   1.419       .  A
C4345      C4346   1.415       .  A
C4345      C4348   1.451       .  S
C4346      C4350   1.451       .  S
C4347      N4354   1.157       .  T
C4348      N4355   1.157       .  T
C4349      N4353   1.157       .  T
C4350      N4356   1.157       .  T
C4351      N4360   1.157       .  T
C4352      N4358   1.157       .  T
C4361      C4362   1.412       .  A
C4361      C4366   1.414       .  A
C4361      C4379   1.451       .  S
C4362      C4367   1.502       .  S
C4362      C4363   1.411       .  A
C4363      C4364   1.411       .  A
C4363      C4368   1.451       .  S
C4364      C4365   1.417       .  A
C4364      C4380   1.451       .  S
C4365      C4366   1.414       .  A
C4366      C4369   1.448       .  S
C4367      C4370   1.413       .  A
C4367      C4374   1.414       .  A
C4368      N4385   1.157       .  T
C4369      N4387   1.157       .  T
C4370      C4371   1.412       .  A
C4370      C4375   1.451       .  S
C4371      C4372   1.412       .  A
C4371      C4377   1.451   1_545  S
C4372      C4373   1.410       .  A
C4373      C4374   1.412       .  A
C4373      C4376   1.451       .  S
C4374      C4378   1.450       .  S
C4375      N4382   1.157   1_545  T
C4376      N4383   1.157       .  T
C4377      N4381   1.157       .  T
C4378      N4384   1.157       .  T
C4379      N4388   1.157       .  T
C4380      N4386   1.157       .  T
C4389      C4390   1.409       .  A
C4389      C4394   1.413       .  A
C4389      C4407   1.452       .  S
C4390      C4395   1.501       .  S
C4390      C4391   1.410       .  A
C4391      C4392   1.413       .  A
C4391      C4396   1.452       .  S
C4392      C4393   1.422       .  A
C4392      C4408   1.450       .  S
C4393      C4394   1.421       .  A
C4394      C4397   1.451       .  S
C4395      C4398   1.411       .  A
C4395      C4402   1.410       .  A
C4396      N4413   1.157       .  T
C4397      N4415   1.157       .  T
C4398      C4399   1.412       .  A
C4398      C4403   1.451       .  S
C4399      C4400   1.415       .  A
C4399      C4405   1.448       .  S
C4400      C4401   1.419       .  A
C4401      C4402   1.411       .  A
C4401      C4404   1.452       .  S
C4402      C4406   1.451       .  S
C4403      N4410   1.157       .  T
C4404      N4411   1.157       .  T
C4405      N4409   1.157       .  T
C4406      N4412   1.157       .  T
C4407      N4416   1.157       .  T
C4408      N4414   1.157       .  T
C4417      C4418   1.413       .  A
C4417      C4422   1.411       .  A
C4417      C4435   1.450       .  S
C4418      C4423   1.500       .  S
C4418      C4419   1.413       .  A
C4419      C4420   1.411       .  A
C4419      C4424   1.452       .  S
C4420      C4421   1.414       .  A
C4420      C4436   1.451       .  S
C4421      C4422   1.414       .  A
C4422      C4425   1.452       .  S
C4423      C4426   1.412       .  A
C4423      C4430   1.411       .  A
C4424      N4441   1.157       .  T
C4425      N4443   1.157       .  T
C4426      C4427   1.413       .  A
C4426      C4431   1.451       .  S
C4427      C4428   1.415       .  A
C4427      C4433   1.448       .  S
C4428      C4429   1.415       .  A
C4429      C4430   1.410       .  A
C4429      C4432   1.451       .  S
C4430      C4434   1.451       .  S
C4431      N4438   1.157       .  T
C4432      N4439   1.157       .  T
C4433      N4437   1.157       .  T
C4434      N4440   1.157       .  T
C4435      N4444   1.157       .  T
C4436      N4442   1.157   1_655  T
C4445      C4446   1.412       .  A
C4445      C4450   1.407       .  A
C4445      C4463   1.451       .  S
C4446      C4451   1.490       .  S
C4446      C4447   1.411       .  A
C4447      C4448   1.408       .  A
C4447      C4452   1.451       .  S
C4448      C4449   1.411       .  A
C4448      C4464   1.450       .  S
C4449      C4450   1.411       .  A
C4450      C4453   1.451       .  S
C4451      C4454   1.410       .  A
C4451      C4458   1.410       .  A
C4452      N4469   1.157       .  T
C4453      N4471   1.157       .  T
C4454      C4455   1.408       .  A
C4454      C4459   1.451       .  S
C4455      C4456   1.413       .  A
C4455      C4461   1.448       .  S
C4456      C4457   1.416       .  A
C4457      C4458   1.407       .  A
C4457      C4460   1.452       .  S
C4458      C4462   1.452       .  S
C4459      N4466   1.157       .  T
C4460      N4467   1.157       .  T
C4461      N4465   1.157       .  T
C4462      N4468   1.157       .  T
C4463      N4472   1.157       .  T
C4464      N4470   1.157       .  T
C4473      C4474   1.410       .  A
C4473      C4478   1.411       .  A
C4473      C4491   1.450       .  S
C4474      C4479   1.495       .  S
C4474      C4475   1.410       .  A
C4475      C4476   1.411       .  A
C4475      C4480   1.450       .  S
C4476      C4477   1.413       .  A
C4476      C4492   1.446       .  S
C4477      C4478   1.415       .  A
C4478      C4481   1.450       .  S
C4479      C4482   1.409       .  A
C4479      C4486   1.411       .  A
C4480      N4497   1.157       .  T
C4481      N4499   1.157       .  T
C4482      C4483   1.407       .  A
C4482      C4487   1.449       .  S
C4483      C4484   1.417       .  A
C4483      C4489   1.452       .  S
C4484      C4485   1.418       .  A
C4485      C4486   1.413       .  A
C4485      C4488   1.451       .  S
C4486      C4490   1.450       .  S
C4487      N4494   1.156       .  T
C4488      N4495   1.158       .  T
C4489      N4493   1.157   1_455  T
C4490      N4496   1.157       .  T
C4491      N4500   1.157       .  T
C4492      N4498   1.156       .  T
C4501      C4502   1.409       .  A
C4501      C4506   1.412       .  A
C4501      C4519   1.451       .  S
C4502      C4507   1.498       .  S
C4502      C4503   1.408       .  A
C4503      C4504   1.413       .  A
C4503      C4508   1.452       .  S
C4504      C4505   1.422       .  A
C4504      C4520   1.450       .  S
C4505      C4506   1.422       .  A
C4506      C4509   1.452       .  S
C4507      C4510   1.409       .  A
C4507      C4514   1.410       .  A
C4508      N4525   1.157       .  T
C4509      N4527   1.158       .  T
C4510      C4511   1.410       .  A
C4510      C4515   1.451       .  S
C4511      C4512   1.417       .  A
C4511      C4517   1.452       .  S
C4512      C4513   1.415       .  A
C4513      C4514   1.412       .  A
C4513      C4516   1.448       .  S
C4514      C4518   1.451       .  S
C4515      N4522   1.157       .  T
C4516      N4523   1.157       .  T
C4517      N4521   1.157       .  T
C4518      N4524   1.157       .  T
C4519      N4528   1.157       .  T
C4520      N4526   1.157       .  T
C4529      C4530   1.412       .  A
C4529      C4534   1.413       .  A
C4529      C4547   1.450       .  S
C4530      C4535   1.497       .  S
C4530      C4531   1.410       .  A
C4531      C4532   1.411       .  A
C4531      C4536   1.451       .  S
C4532      C4533   1.412       .  A
C4532      C4548   1.450       .  S
C4533      C4534   1.413       .  A
C4534      C4537   1.451       .  S
C4535      C4538   1.409       .  A
C4535      C4542   1.410       .  A
C4536      N4553   1.157       .  T
C4537      N4555   1.157       .  T
C4538      C4539   1.411       .  A
C4538      C4543   1.450       .  S
C4539      C4540   1.418       .  A
C4539      C4545   1.451       .  S
C4540      C4541   1.415       .  A
C4541      C4542   1.412       .  A
C4541      C4544   1.448       .  S
C4542      C4546   1.451       .  S
C4543      N4550   1.157       .  T
C4544      N4551   1.157       .  T
C4545      N4549   1.157       .  T
C4546      N4552   1.157       .  T
C4547      N4556   1.157       .  T
C4548      N4554   1.157       .  T
C4557      C4558   1.411       .  A
C4557      C4562   1.415       .  A
C4557      C4575   1.450       .  S
C4558      C4563   1.501       .  S
C4558      C4559   1.409       .  A
C4559      C4560   1.412       .  A
C4559      C4564   1.451       .  S
C4560      C4561   1.420       .  A
C4560      C4576   1.450       .  S
C4561      C4562   1.418       .  A
C4562      C4565   1.451       .  S
C4563      C4566   1.410       .  A
C4563      C4570   1.409       .  A
C4564      N4581   1.157       .  T
C4565      N4583   1.157       .  T
C4566      C4567   1.414       .  A
C4566      C4571   1.451       .  S
C4567      C4568   1.417       .  A
C4567      C4573   1.448       .  S
C4568      C4569   1.419       .  A
C4569      C4570   1.412       .  A
C4569      C4572   1.451       .  S
C4570      C4574   1.451       .  S
C4571      N4578   1.157       .  T
C4572      N4579   1.157       .  T
C4573      N4577   1.157       .  T
C4574      N4580   1.157       .  T
C4575      N4584   1.157       .  T
C4576      N4582   1.157       .  T
C4585      C4586   1.410       .  A
C4585      C4590   1.411       .  A
C4585      C4603   1.450       .  S
C4586      C4591   1.500       .  S
C4586      C4587   1.410       .  A
C4587      C4588   1.414       .  A
C4587      C4592   1.450       .  S
C4588      C4589   1.418       .  A
C4588      C4604   1.451       .  S
C4589      C4590   1.416       .  A
C4590      C4593   1.451       .  S
C4591      C4594   1.409       .  A
C4591      C4598   1.408       .  A
C4592      N4609   1.157       .  T
C4593      N4611   1.157   1_565  T
C4594      C4595   1.414       .  A
C4594      C4599   1.450       .  S
C4595      C4596   1.416       .  A
C4595      C4601   1.448       .  S
C4596      C4597   1.421       .  A
C4597      C4598   1.412       .  A
C4597      C4600   1.451       .  S
C4598      C4602   1.451       .  S
C4599      N4606   1.157       .  T
C4600      N4607   1.157       .  T
C4601      N4605   1.157       .  T
C4602      N4608   1.157       .  T
C4603      N4612   1.157       .  T
C4604      N4610   1.158       .  T
C4613      C4614   1.411       .  A
C4613      C4618   1.409       .  A
C4613      C4631   1.452       .  S
C4614      C4619   1.498       .  S
C4614      C4615   1.411       .  A
C4615      C4616   1.412       .  A
C4615      C4620   1.450       .  S
C4616      C4617   1.414       .  A
C4616      C4632   1.449       .  S
C4617      C4618   1.417       .  A
C4618      C4621   1.452       .  S
C4619      C4622   1.413       .  A
C4619      C4626   1.413       .  A
C4620      N4637   1.157       .  T
C4621      N4639   1.157       .  T
C4622      C4623   1.411       .  A
C4622      C4627   1.451       .  S
C4623      C4624   1.412       .  A
C4623      C4629   1.451       .  S
C4624      C4625   1.410       .  A
C4625      C4626   1.411       .  A
C4625      C4628   1.450       .  S
C4626      C4630   1.450       .  S
C4627      N4634   1.157       .  T
C4628      N4635   1.157       .  T
C4629      N4633   1.157       .  T
C4630      N4636   1.157       .  T
C4631      N4640   1.157       .  T
C4632      N4638   1.157       .  T
C4641      C4642   1.410       .  A
C4641      C4646   1.412       .  A
C4641      C4659   1.452       .  S
C4642      C4647   1.496       .  S
C4642      C4643   1.408       .  A
C4643      C4644   1.409       .  A
C4643      C4648   1.452       .  S
C4644      C4645   1.421       .  A
C4644      C4660   1.450       .  S
C4645      C4646   1.418       .  A
C4646      C4649   1.450       .  S
C4647      C4650   1.411       .  A
C4647      C4654   1.411       .  A
C4648      N4665   1.157       .  T
C4649      N4667   1.157       .  T
C4650      C4651   1.409       .  A
C4650      C4655   1.451       .  S
C4651      C4652   1.414       .  A
C4651      C4657   1.451       .  S
C4652      C4653   1.412       .  A
C4653      C4654   1.409       .  A
C4653      C4656   1.449       .  S
C4654      C4658   1.451       .  S
C4655      N4662   1.157       .  T
C4656      N4663   1.157       .  T
C4657      N4661   1.157       .  T
C4658      N4664   1.157       .  T
C4659      N4668   1.157       .  T
C4660      N4666   1.157       .  T
C4669      C4670   1.410       .  A
C4669      C4674   1.411       .  A
C4669      C4687   1.450       .  S
C4670      C4675   1.499       .  S
C4670      C4671   1.410       .  A
C4671      C4672   1.412       .  A
C4671      C4676   1.450       .  S
C4672      C4673   1.414       .  A
C4672      C4688   1.448       .  S
C4673      C4674   1.416       .  A
C4674      C4677   1.451       .  S
C4675      C4678   1.409       .  A
C4675      C4682   1.408       .  A
C4676      N4693   1.157       .  T
C4677      N4695   1.157       .  T
C4678      C4679   1.414       .  A
C4678      C4683   1.451       .  S
C4679      C4680   1.421       .  A
C4679      C4685   1.451       .  S
C4680      C4681   1.422       .  A
C4681      C4682   1.412       .  A
C4681      C4684   1.452   1_545  S
C4682      C4686   1.452       .  S
C4683      N4690   1.157       .  T
C4684      N4691   1.158       .  T
C4685      N4689   1.158       .  T
C4686      N4692   1.157       .  T
C4687      N4696   1.157       .  T
C4688      N4694   1.157       .  T
C4697      C4698   1.413       .  A
C4697      C4702   1.411       .  A
C4697      C4715   1.451       .  S
C4698      C4703   1.499       .  S
C4698      C4699   1.412       .  A
C4699      C4700   1.410       .  A
C4699      C4704   1.451       .  S
C4700      C4701   1.413       .  A
C4700      C4716   1.450       .  S
C4701      C4702   1.412       .  A
C4702      C4705   1.450       .  S
C4703      C4706   1.411       .  A
C4703      C4710   1.411       .  A
C4704      N4721   1.157       .  T
C4705      N4723   1.157       .  T
C4706      C4707   1.410       .  A
C4706      C4711   1.452       .  S
C4707      C4708   1.419       .  A
C4707      C4713   1.451       .  S
C4708      C4709   1.415       .  A
C4709      C4710   1.412       .  A
C4709      C4712   1.448       .  S
C4710      C4714   1.451       .  S
C4711      N4718   1.157       .  T
C4712      N4719   1.157       .  T
C4713      N4717   1.157       .  T
C4714      N4720   1.157       .  T
C4715      N4724   1.157       .  T
C4716      N4722   1.157       .  T
C4725      C4726   1.409       .  A
C4725      C4730   1.411       .  A
C4725      C4743   1.451       .  S
C4726      C4731   1.496       .  S
C4726      C4727   1.409       .  A
C4727      C4728   1.410       .  A
C4727      C4732   1.451       .  S
C4728      C4729   1.417       .  A
C4728      C4744   1.451       .  S
C4729      C4730   1.415       .  A
C4730      C4733   1.448       .  S
C4731      C4734   1.408       .  A
C4731      C4738   1.408       .  A
C4732      N4749   1.157       .  T
C4733      N4751   1.157       .  T
C4734      C4735   1.411       .  A
C4734      C4739   1.451       .  S
C4735      C4736   1.419       .  A
C4735      C4741   1.450       .  S
C4736      C4737   1.421       .  A
C4737      C4738   1.411       .  A
C4737      C4740   1.452       .  S
C4738      C4742   1.451       .  S
C4739      N4746   1.157       .  T
C4740      N4747   1.157       .  T
C4741      N4745   1.157       .  T
C4742      N4748   1.157       .  T
C4743      N4752   1.157       .  T
C4744      N4750   1.157       .  T
C4753      C4754   1.410       .  A
C4753      C4758   1.414       .  A
C4753      C4771   1.451       .  S
C4754      C4759   1.501       .  S
C4754      C4755   1.409       .  A
C4755      C4756   1.412       .  A
C4755      C4760   1.451       .  S
C4756      C4757   1.419       .  A
C4756      C4772   1.451       .  S
C4757      C4758   1.416       .  A
C4758      C4761   1.448       .  S
C4759      C4762   1.409       .  A
C4759      C4766   1.409       .  A
C4760      N4777   1.157       .  T
C4761      N4779   1.157       .  T
C4762      C4763   1.413       .  A
C4762      C4767   1.451       .  S
C4763      C4764   1.421       .  A
C4763      C4769   1.451       .  S
C4764      C4765   1.422       .  A
C4765      C4766   1.414       .  A
C4765      C4768   1.452   1_556  S
C4766      C4770   1.451       .  S
C4767      N4774   1.157       .  T
C4768      N4775   1.158       .  T
C4769      N4773   1.157       .  T
C4770      N4776   1.157       .  T
C4771      N4780   1.157       .  T
C4772      N4778   1.157       .  T
C4781      C4782   1.410       .  A
C4781      C4786   1.411       .  A
C4781      C4799   1.451       .  S
C4782      C4787   1.495       .  S
C4782      C4783   1.410       .  A
C4783      C4784   1.411       .  A
C4783      C4788   1.451       .  S
C4784      C4785   1.416       .  A
C4784      C4800   1.451       .  S
C4785      C4786   1.417       .  A
C4786      C4789   1.452       .  S
C4787      C4790   1.409       .  A
C4787      C4794   1.410       .  A
C4788      N4805   1.157       .  T
C4789      N4807   1.158       .  T
C4790      C4791   1.409       .  A
C4790      C4795   1.451       .  S
C4791      C4792   1.416       .  A
C4791      C4797   1.451       .  S
C4792      C4793   1.414       .  A
C4793      C4794   1.411       .  A
C4793      C4796   1.448       .  S
C4794      C4798   1.451       .  S
C4795      N4802   1.157       .  T
C4796      N4803   1.157       .  T
C4797      N4801   1.157       .  T
C4798      N4804   1.157       .  T
C4799      N4808   1.157       .  T
C4800      N4806   1.157       .  T
C4809      C4810   1.411       .  A
C4809      C4814   1.411       .  A
C4809      C4827   1.451       .  S
C4810      C4815   1.500       .  S
C4810      C4811   1.411       .  A
C4811      C4812   1.411       .  A
C4811      C4816   1.450       .  S
C4812      C4813   1.415       .  A
C4812      C4828   1.451       .  S
C4813      C4814   1.413       .  A
C4814      C4817   1.448       .  S
C4815      C4818   1.408       .  A
C4815      C4822   1.406       .  A
C4816      N4833   1.157       .  T
C4817      N4835   1.157       .  T
C4818      C4819   1.414       .  A
C4818      C4823   1.453       .  S
C4819      C4820   1.428       .  A
C4819      C4825   1.451       .  S
C4820      C4821   1.430       .  A
C4821      C4822   1.413       .  A
C4821      C4824   1.452       .  S
C4822      C4826   1.453       .  S
C4823      N4830   1.157       .  T
C4824      N4831   1.158       .  T
C4825      N4829   1.158       .  T
C4826      N4832   1.157       .  T
C4827      N4836   1.157       .  T
C4828      N4834   1.157       .  T
C4837      C4838   1.410       .  A
C4837      C4842   1.410       .  A
C4837      C4855   1.450       .  S
C4838      C4843   1.496       .  S
C4838      C4839   1.410       .  A
C4839      C4840   1.410       .  A
C4839      C4844   1.451       .  S
C4840      C4841   1.416       .  A
C4840      C4856   1.451       .  S
C4841      C4842   1.413       .  A
C4842      C4845   1.449       .  S
C4843      C4846   1.409       .  A
C4843      C4850   1.410       .  A
C4844      N4861   1.157       .  T
C4845      N4863   1.157       .  T
C4846      C4847   1.411       .  A
C4846      C4851   1.451       .  S
C4847      C4848   1.418       .  A
C4847      C4853   1.451       .  S
C4848      C4849   1.417       .  A
C4849      C4850   1.412       .  A
C4849      C4852   1.451       .  S
C4850      C4854   1.451       .  S
C4851      N4858   1.157       .  T
C4852      N4859   1.157   1_554  T
C4853      N4857   1.157       .  T
C4854      N4860   1.157       .  T
C4855      N4864   1.157       .  T
C4856      N4862   1.157       .  T
C4865      C4866   1.409       .  A
C4865      C4870   1.410       .  A
C4865      C4883   1.451       .  S
C4866      C4871   1.494       .  S
C4866      C4867   1.409       .  A
C4867      C4868   1.410       .  A
C4867      C4872   1.450       .  S
C4868      C4869   1.416       .  A
C4868      C4884   1.451       .  S
C4869      C4870   1.414       .  A
C4870      C4873   1.448       .  S
C4871      C4874   1.411       .  A
C4871      C4878   1.411       .  A
C4872      N4889   1.157       .  T
C4873      N4891   1.157       .  T
C4874      C4875   1.410       .  A
C4874      C4879   1.450       .  S
C4875      C4876   1.411       .  A
C4875      C4881   1.450       .  S
C4876      C4877   1.413       .  A
C4877      C4878   1.411       .  A
C4877      C4880   1.451       .  S
C4878      C4882   1.451       .  S
C4879      N4886   1.157       .  T
C4880      N4887   1.157       .  T
C4881      N4885   1.157       .  T
C4882      N4888   1.157       .  T
C4883      N4892   1.157       .  T
C4884      N4890   1.157       .  T
C4893      C4894   1.411       .  A
C4893      C4898   1.414       .  A
C4893      C4911   1.451       .  S
C4894      C4899   1.501       .  S
C4894      C4895   1.411       .  A
C4895      C4896   1.412       .  A
C4895      C4900   1.450       .  S
C4896      C4897   1.415       .  A
C4896      C4912   1.451       .  S
C4897      C4898   1.417       .  A
C4898      C4901   1.451       .  S
C4899      C4902   1.410       .  A
C4899      C4906   1.411       .  A
C4900      N4917   1.157       .  T
C4901      N4919   1.158       .  T
C4902      C4903   1.412       .  A
C4902      C4907   1.450       .  S
C4903      C4904   1.417       .  A
C4903      C4909   1.451       .  S
C4904      C4905   1.416       .  A
C4905      C4906   1.414       .  A
C4905      C4908   1.448       .  S
C4906      C4910   1.451       .  S
C4907      N4914   1.157       .  T
C4908      N4915   1.157       .  T
C4909      N4913   1.157       .  T
C4910      N4916   1.157       .  T
C4911      N4920   1.157       .  T
C4912      N4918   1.157       .  T
