geometry optimzed in LAMMPS
_audit_creation_date              2020-11-30 
_audit_creation_method            'lammps2cif' 
_symmetry_space_group_name_H-M    'P1' 
_symmetry_Int_Tables_number       1 
_symmetry_cell_setting            triclinic 
loop_ 
_symmetry_equiv_pos_as_xyz 
  x,y,z 
_cell_length_a                    31.3441962 
_cell_length_b                    31.252442110776958 
_cell_length_c                    31.460877678812498 
_cell_angle_alpha                 89.70315042699968 
_cell_angle_beta                  90.0625003696799 
_cell_angle_gamma                 90.23022646048167 
loop_ 
_atom_site_label 
_atom_site_type_symbol 
_atom_site_fract_x 
_atom_site_fract_y 
_atom_site_fract_z 
_atom_site_charge 
C1          C  0.57730593  0.29266247  0.08393187     0.03200
C2          C  0.55611137  0.27908251  0.04682469    -0.13000
C3          C  0.51151383  0.27302558  0.04675992     0.00700
C4          C  0.48839771  0.28176535  0.08386645    -0.11500
C5          C  0.50900514  0.29600783  0.12071689     0.03200
C6          C  0.55344208  0.30079501  0.12078993    -0.10900
H7          H  0.57427648  0.27216897  0.01844071     0.08800
H8          H  0.45404392  0.27748655  0.08410712     0.06300
H9          H  0.56955322  0.31060073  0.14965199     0.06100
C10         C  0.30217102  0.14297168  0.50578027     0.03200
C11         C  0.28792579  0.10591545  0.48509345    -0.13000
C12         C  0.28606674  0.10448595  0.44047895     0.00700
C13         C  0.29614425  0.14146865  0.41696239    -0.11500
C14         C  0.30913571  0.17908679  0.43746357     0.03200
C15         C  0.31291950  0.17948543  0.48185228    -0.10900
H16         H  0.27893554  0.07812115  0.50377859     0.08800
H17         H  0.29459441  0.14081576  0.38254469     0.06300
H18         H  0.32422157  0.20806838  0.49772982     0.06100
C19         C  0.16264332  0.55911496  0.22572758     0.03200
C20         C  0.19958962  0.53523207  0.23430394    -0.13000
C21         C  0.19977584  0.49083808  0.22840225     0.00700
C22         C  0.16286070  0.47023795  0.21382430    -0.11500
C23         C  0.12532884  0.49333270  0.20597515     0.03200
C24         C  0.12519733  0.53781112  0.21298280    -0.10900
H25         H  0.22805544  0.55112267  0.24597517     0.08800
H26         H  0.16313264  0.43584746  0.20947049     0.06300
H27         H  0.09607212  0.55586852  0.20903512     0.06100
C28         C  0.33344896  0.37351167  0.27747608     0.80300
N29         N  0.36643073  0.36525801  0.25074353    -0.78000
C30         C  0.39297156  0.33177762  0.25814517     0.82700
N31         N  0.38642574  0.30645940  0.29271026    -0.78000
C32         C  0.35383593  0.31426919  0.31991045     0.82800
N33         N  0.32708768  0.34743061  0.31161503    -0.79700
Zn34       Zn  0.66796206  0.64153327  0.58829678     1.49700
Zn35       Zn  0.75151359  0.64333457  0.64284193     1.49400
Zn36       Zn  0.72280098  0.72656577  0.58974311     1.49100
Zn37       Zn  0.66885783  0.69698920  0.67087522     1.49500
O38         O  0.70335807  0.67764218  0.62339470    -1.84100
O39         O  0.70140164  0.59241828  0.56523204    -0.74700
O40         O  0.80631217  0.67249545  0.62611914    -0.74500
O41         O  0.69082380  0.72952489  0.53329455    -0.74100
O42         O  0.75450569  0.58663713  0.61132682    -0.74700
O43         O  0.64575391  0.67489542  0.53902112    -0.74300
O44         O  0.78775018  0.72553101  0.58258358    -0.74900
O45         O  0.66128987  0.76194534  0.67003446    -0.74300
O46         O  0.75065674  0.63646282  0.70748333    -0.75100
O47         O  0.70622779  0.78138100  0.61891538    -0.74500
O48         O  0.69795119  0.68021670  0.72536778    -0.74900
O49         O  0.61186741  0.66570458  0.67256980    -0.74800
O50         O  0.61755649  0.61869327  0.62058955    -0.74600
C51         C  0.73439481  0.57310519  0.57869036     0.77200
C52         C  0.81633834  0.70270906  0.60068902     0.77700
C53         C  0.65894686  0.70808584  0.51952807     0.76600
C54         C  0.67987539  0.79103892  0.64809419     0.77000
C55         C  0.72800470  0.65489818  0.73570703     0.78100
C56         C  0.59759693  0.63324836  0.65260628     0.77200
C57         C  0.26108400  0.89414911  0.00671345     0.03200
C58         C  0.27352309  0.93168608  0.98524881    -0.13000
C59         C  0.27476440  0.93285689  0.94061516     0.00700
C60         C  0.26182600  0.89674693  0.91767081    -0.11500
C61         C  0.24764736  0.85976077  0.93873436     0.03200
C62         C  0.24771090  0.85841336  0.98324346    -0.10900
H63         H  0.28216228  0.95984447  0.00329920     0.08800
H64         H  0.26321627  0.89727210  0.88323707     0.06300
H65         H  0.23684546  0.82976146  0.99956504     0.06100
C66         C  0.41177147  0.47421323  0.73041742     0.03200
C67         C  0.44637369  0.49568539  0.71155435    -0.13000
C68         C  0.44560539  0.54033884  0.70645873     0.00700
C69         C  0.41009761  0.56326801  0.72067611    -0.11500
C70         C  0.37683953  0.54287792  0.74281181     0.03200
C71         C  0.37749831  0.49803547  0.74683575    -0.10900
H72         H  0.47410000  0.47774128  0.70157044     0.08800
H73         H  0.40927477  0.59763550  0.71596607     0.06300
H74         H  0.35182679  0.48165726  0.76334857     0.06100
C75         C  0.99634904  0.74372462  0.58542737     0.03200
C76         C  0.01614411  0.76005797  0.54863230    -0.13000
C77         C  0.06001738  0.76973859  0.54862870     0.00700
C78         C  0.08372411  0.76289939  0.58587558    -0.11500
C79         C  0.06496169  0.74481178  0.62232158     0.03200
C80         C  0.02115971  0.73503117  0.62172457    -0.10900
H81         H  0.99767573  0.76351908  0.51973528     0.08800
H82         H  0.11759606  0.77009704  0.58591360     0.06300
H83         H  0.00647480  0.71946381  0.64884350     0.06100
C84         C  0.21654913  0.72006299  0.82269729     0.80300
N85         N  0.18675133  0.72638645  0.79175745    -0.78000
C86         C  0.18352620  0.69954562  0.75797334     0.82700
N87         N  0.21052711  0.66570846  0.75554918    -0.78000
C88         C  0.24042559  0.65870964  0.78603605     0.82800
N89         N  0.24342412  0.68632143  0.81909029    -0.79700
Zn90       Zn  0.39951198  0.14821916  0.83354367     1.49700
Zn91       Zn  0.35035798  0.23500055  0.82668888     1.49400
Zn92       Zn  0.40121011  0.19788189  0.74611974     1.49100
Zn93       Zn  0.31452200  0.15255493  0.77858617     1.49500
O94         O  0.36600457  0.18371289  0.79562314    -1.84100
O95         O  0.42408034  0.18257347  0.88175252    -0.74700
O96         O  0.37010323  0.28568506  0.79344120    -0.74500
O97         O  0.45497015  0.16116004  0.74487351    -0.74100
O98         O  0.38332581  0.24010502  0.88252125    -0.74700
O99         O  0.44801017  0.12061561  0.80252222    -0.74300
O100        O  0.41346491  0.26260005  0.74259677    -0.74900
O101        O  0.31339235  0.14256200  0.71444673    -0.74300
O102        O  0.28575020  0.23964750  0.83472059    -0.75100
O103        O  0.36996110  0.18030172  0.69333572    -0.74500
O104        O  0.26204712  0.18626881  0.79424203    -0.74900
O105        O  0.30927133  0.09695361  0.81226702    -0.74800
O106        O  0.36340144  0.10103650  0.85743834    -0.74600
C107        C  0.41361267  0.21806450  0.89844475     0.77200
C108        C  0.39651121  0.29304464  0.76360771     0.77700
C109        C  0.46741101  0.13006519  0.76824966     0.76600
C110        C  0.33749734  0.15720594  0.68502702     0.77000
C111        C  0.25524006  0.21844705  0.81792350     0.78100
C112        C  0.32949719  0.08262326  0.84451480     0.77200
C113        C  0.07424029  0.24428510  0.83858843     0.03200
C114        C  0.04920954  0.23085964  0.80390481    -0.13000
C115        C  0.00455596  0.23031887  0.80685172     0.00700
C116        C  0.98476674  0.24237797  0.84470624    -0.11500
C117        C  0.00915990  0.25544769  0.87957647     0.03200
C118        C  0.05388679  0.25647989  0.87651071    -0.10900
H119        H  0.06440374  0.22118051  0.77457757     0.08800
H120        H  0.95023252  0.24229838  0.84680962     0.06300
H121        H  0.07275218  0.26667756  0.90353475     0.06100
C122        C  0.82321416  0.39326519  0.42018655     0.03200
C123        C  0.80800734  0.42953284  0.44149957    -0.13000
C124        C  0.80551335  0.42974726  0.48606919     0.00700
C125        C  0.81784027  0.39331001  0.50901543    -0.11500
C126        C  0.83452424  0.35737512  0.48825457     0.03200
C127        C  0.83684107  0.35747774  0.44370716    -0.10900
H128        H  0.79768223  0.45725842  0.42345544     0.08800
H129        H  0.81416752  0.39284564  0.54327038     0.06300
H130        H  0.84907330  0.32973251  0.42725027     0.06100
C131        C  0.65284124  0.97104385  0.68557943     0.03200
C132        C  0.61498534  0.98906814  0.70148684    -0.13000
C133        C  0.61276637  0.03321967  0.70939284     0.00700
C134        C  0.64841417  0.05919164  0.70179702    -0.11500
C135        C  0.68604423  0.04206618  0.68503267     0.03200
C136        C  0.68774673  0.99802146  0.67635294    -0.10900
H137        H  0.58710110  0.96915814  0.70667260     0.08800
H138        H  0.64646804  0.09318164  0.70823224     0.06300
H139        H  0.71634977  0.98465069  0.66247388     0.06100
C140        C  0.82343592  0.16117519  0.64480724     0.80300
N141        N  0.82452563  0.18730240  0.60997896    -0.78000
C142        C  0.85697123  0.21594541  0.60461565     0.82700
N143        N  0.88789156  0.21839279  0.63475558    -0.78000
C144        C  0.88733368  0.19284204  0.66969055     0.82800
N145        N  0.85484834  0.16446717  0.67448844    -0.79700
Zn146      Zn  0.84367377  0.35176868  0.07266213     1.49700
Zn147      Zn  0.83500953  0.31509254  0.16569801     1.49400
Zn148      Zn  0.92661353  0.32114868  0.12494711     1.49100
Zn149      Zn  0.87760823  0.40605571  0.15213512     1.49500
O150        O  0.87101128  0.34880814  0.12842093    -1.84100
O151        O  0.78345398  0.32688204  0.07393150    -0.74700
O152        O  0.85784117  0.25544189  0.17236146    -0.74500
O153        O  0.94080857  0.31043691  0.06363144    -0.74100
O154        O  0.77555624  0.31084279  0.14222603    -0.74700
O155        O  0.88130166  0.32496393  0.02746183    -0.74300
O156        O  0.92524285  0.26199247  0.15182001    -0.74900
O157        O  0.93970811  0.42109366  0.15647069    -0.74300
O158        O  0.83255342  0.34148379  0.22353866    -0.75100
O159        O  0.97356957  0.35900632  0.14958108    -0.74500
O160        O  0.85586955  0.40787195  0.21322094    -0.74900
O161        O  0.85084902  0.45102553  0.11373111    -0.74800
O162        O  0.83521778  0.41308820  0.05610043    -0.74600
C163        C  0.76014553  0.31458930  0.10496355     0.77200
C164        C  0.89468501  0.23948883  0.16684752     0.77700
C165        C  0.91978333  0.31186231  0.02902726     0.76600
C166        C  0.97367754  0.39899926  0.15764398     0.77000
C167        C  0.84122551  0.37862116  0.23768947     0.78100
C168        C  0.83771771  0.44868748  0.07540236     0.77200
C169        C  0.91553214  0.05669538  0.18862966     0.03200
C170        C  0.95351115  0.03696414  0.20196694    -0.13000
C171        C  0.95516952  0.99237254  0.20801026     0.00700
C172        C  0.91874143  0.96770063  0.19916433    -0.11500
C173        C  0.88090883  0.98704564  0.18530301     0.03200
C174        C  0.87937678  0.03153067  0.18019717    -0.10900
H175        H  0.98165847  0.05635040  0.20727389     0.08800
H176        H  0.91969782  0.93324414  0.20322676     0.06300
H177        H  0.85005913  0.04657175  0.16972061     0.06100
C178        C  0.49935908  0.78530422  0.33470299     0.03200
C179        C  0.52340761  0.79331984  0.29768165    -0.13000
C180        C  0.56788197  0.78796922  0.29785067     0.00700
C181        C  0.58852348  0.77606128  0.33553810    -0.11500
C182        C  0.56520481  0.76894754  0.37278039     0.03200
C183        C  0.52061449  0.77344245  0.37236633    -0.10900
H184        H  0.50755777  0.80350929  0.26874997     0.08800
H185        H  0.62289861  0.77224158  0.33586697     0.06300
H186        H  0.50251492  0.76728903  0.40109808     0.06100
C187        C  0.76645052  0.63720971  0.91516230     0.03200
C188        C  0.75713881  0.67330909  0.93986529    -0.13000
C189        C  0.76249581  0.67201902  0.98400999     0.00700
C190        C  0.77684392  0.63455766  0.00364930    -0.11500
C191        C  0.78560737  0.59804314  0.97963982     0.03200
C192        C  0.78083441  0.59959180  0.93518933    -0.10900
H193        H  0.74550212  0.70226839  0.92477816     0.08800
H194        H  0.78039521  0.63359135  0.03793616     0.06300
H195        H  0.78768252  0.57156455  0.91634700     0.06100
C196        C  0.68670193  0.82723514  0.16307532     0.80300
N197        N  0.71322995  0.86103707  0.16928140    -0.78000
C198        C  0.74627302  0.86876057  0.14246589     0.82700
N199        N  0.75345965  0.84154000  0.10984603    -0.78000
C200        C  0.72792582  0.80694294  0.10361616     0.82800
N201        N  0.69455664  0.79996135  0.13048313    -0.79700
Zn202      Zn  0.24185411  0.81360788  0.26100352     1.49700
Zn203      Zn  0.14940187  0.82410421  0.30039995     1.49400
Zn204      Zn  0.23282447  0.85319382  0.35322342     1.49100
Zn205      Zn  0.20237958  0.90654316  0.27180420     1.49500
O206        O  0.20653659  0.84941308  0.29694001    -1.84100
O207        O  0.21476136  0.75546597  0.25315960    -0.74700
O208        O  0.13272212  0.81773878  0.36196004    -0.74500
O209        O  0.29316502  0.82813317  0.35305679    -0.74100
O210        O  0.14824726  0.76398451  0.27558983    -0.74700
O211        O  0.30071644  0.80623499  0.28648194    -0.74300
O212        O  0.19349835  0.82639703  0.39795751    -0.74900
O213        O  0.22733005  0.95196047  0.30997122    -0.74300
O214        O  0.10498882  0.86203784  0.27210672    -0.75100
O215        O  0.24091016  0.91538180  0.36913972    -0.74500
O216        O  0.14116758  0.92277946  0.26295342    -0.74900
O217        O  0.22803908  0.90780355  0.21286190    -0.74800
O218        O  0.24811017  0.84056520  0.20307402    -0.74600
C219        C  0.17733745  0.74066119  0.25956803     0.77200
C220        C  0.15376533  0.81707627  0.39661384     0.77700
C221        C  0.31626610  0.81295789  0.32334364     0.76600
C222        C  0.23890702  0.95069413  0.34877285     0.77000
C223        C  0.10656224  0.90149186  0.26167672     0.78100
C224        C  0.24208357  0.87832740  0.18886840     0.77200
C225        C  0.78650601  0.73411853  0.02589095    -0.20300
C226        C  0.75264076  0.70942423  0.01049795    -0.06800
C227        C  0.71071755  0.71791824  0.02397237     0.14000
C228        C  0.70360584  0.75093509  0.05314178    -0.20300
C229        C  0.73754714  0.77540179  0.06964646    -0.06800
C230        C  0.77974037  0.76693852  0.05537648     0.14000
C231        C  0.81829144  0.79037928  0.07230244    -0.23700
H232        H  0.81864576  0.72671889  0.01561852     0.15300
H233        H  0.67132964  0.75707624  0.06374333     0.15300
C234        C  0.67376012  0.69111668  0.00868111    -0.23600
H235        H  0.84851735  0.77733087  0.05940847     0.05600
H236        H  0.81966326  0.78728058  0.10745081     0.08800
H237        H  0.81698890  0.82458513  0.06293077     0.08800
H238        H  0.67886164  0.65711755  0.01770787     0.08800
H239        H  0.67107940  0.69364459  0.97357159     0.08800
H240        H  0.64308337  0.70164232  0.02274644     0.05500
C241        C  0.64623674  0.77473691  0.20685491    -0.20300
C242        C  0.65258737  0.81752312  0.19440343    -0.06800
C243        C  0.62758564  0.84989372  0.21345707     0.14000
C244        C  0.59821143  0.83872753  0.24537672    -0.20300
C245        C  0.59371783  0.79631468  0.25932839    -0.06800
C246        C  0.61740068  0.76373301  0.23922465     0.14000
C247        C  0.61327163  0.71713188  0.25124334    -0.23700
H248        H  0.66499162  0.74970972  0.19226615     0.15300
H249        H  0.57992390  0.86351703  0.26090484     0.15300
C250        C  0.63134475  0.89622327  0.20034016    -0.23600
H251        H  0.60423028  0.69833232  0.22274228     0.05600
H252        H  0.58863977  0.71115459  0.27583100     0.08800
H253        H  0.64434401  0.70528341  0.26342382     0.08800
H254        H  0.62667263  0.89933024  0.16547458     0.08800
H255        H  0.66308769  0.90911412  0.20934256     0.08800
H256        H  0.60700860  0.91632246  0.21621709     0.05500
C257        C  0.43302845  0.82153295  0.35908443    -0.20300
C258        C  0.45207636  0.78985828  0.33406813    -0.06800
C259        C  0.42586304  0.76347386  0.30859667     0.14000
C260        C  0.38166842  0.77097757  0.30693691    -0.20300
C261        C  0.36251611  0.80377560  0.33064936    -0.06800
C262        C  0.38869813  0.82891308  0.35776334     0.14000
C263        C  0.37072626  0.86477587  0.38405085    -0.23700
H264        H  0.45320221  0.84135669  0.37897317     0.15300
H265        H  0.36190634  0.75116957  0.28664231     0.15300
C266        C  0.44422198  0.72667021  0.28389270    -0.23600
H267        H  0.39605699  0.88202891  0.40186479     0.05600
H268        H  0.34778540  0.85175009  0.40768947     0.08800
H269        H  0.35446049  0.88834710  0.36312551     0.08800
H270        H  0.46141073  0.70476233  0.30584374     0.08800
H271        H  0.46659891  0.73860971  0.25924808     0.08800
H272        H  0.41894208  0.70792654  0.26755941     0.05500
C273        C  0.82908040  0.95785671  0.13335475    -0.20300
C274        C  0.84322322  0.96025599  0.17562053    -0.06800
C275        C  0.82288254  0.93518453  0.20719052     0.14000
C276        C  0.79060535  0.90657793  0.19529556    -0.20300
C277        C  0.77780589  0.90248228  0.15274130    -0.06800
C278        C  0.79651566  0.92927431  0.12145294     0.14000
C279        C  0.78168435  0.92872122  0.07586646    -0.23700
H280        H  0.84441538  0.97765284  0.10939407     0.15300
H281        H  0.77598286  0.88653465  0.21951246     0.15300
C282        C  0.83408453  0.93795952  0.25372637    -0.23600
H283        H  0.79793933  0.95374845  0.05653134     0.05600
H284        H  0.74682686  0.93477653  0.07447969     0.08800
H285        H  0.78872374  0.89740930  0.06116387     0.08800
H286        H  0.85822924  0.96293494  0.26071972     0.08800
H287        H  0.84650344  0.90663629  0.26490828     0.08800
H288        H  0.80501378  0.94586378  0.27218993     0.05500
C289        C  0.05295600  0.95827457  0.27215889    -0.20300
C290        C  0.06748330  0.92373008  0.24797587    -0.06800
C291        C  0.04567376  0.91232556  0.21048618     0.14000
C292        C  0.00994332  0.93611854  0.19777473    -0.20300
C293        C  0.99494562  0.97060956  0.22205218    -0.06800
C294        C  0.01644066  0.98137496  0.26022073     0.14000
C295        C  0.00002578  0.01543107  0.28973304    -0.23700
H296        H  0.06990418  0.96667647  0.30102147     0.15300
H297        H  0.99342258  0.92764402  0.16870235     0.15300
C298        C  0.06060459  0.87569950  0.18341847    -0.23600
H299        H  0.01849213  0.01640163  0.31987221     0.05600
H300        H  0.96617294  0.00879710  0.29788123     0.08800
H301        H  0.00282901  0.04748691  0.27485050     0.08800
H302        H  0.05924020  0.84543335  0.20199034     0.08800
H303        H  0.09391790  0.88161461  0.17287386     0.08800
H304        H  0.04038422  0.87166637  0.15468945     0.05500
C305        C  0.88550454  0.12599264  0.21178590    -0.20300
C306        C  0.91283182  0.10381863  0.18444230    -0.06800
C307        C  0.93521896  0.12650121  0.15257411     0.14000
C308        C  0.92976752  0.17092881  0.14886749    -0.20300
C309        C  0.90163671  0.19322980  0.17551579    -0.06800
C310        C  0.87941005  0.17034847  0.20772094     0.14000
C311        C  0.84975169  0.19222866  0.23836451    -0.23700
H312        H  0.86841617  0.10826622  0.23615662     0.15300
H313        H  0.94640995  0.18810784  0.12383231     0.15300
C314        C  0.96323288  0.10370140  0.12112904    -0.23600
H315        H  0.83775117  0.16979794  0.26315690     0.05600
H316        H  0.82153944  0.20496191  0.22122834     0.08800
H317        H  0.86683170  0.21869412  0.25463426     0.08800
H318        H  0.94430904  0.07901093  0.10412945     0.08800
H319        H  0.99030464  0.08820387  0.13778985     0.08800
H320        H  0.97670805  0.12608109  0.09706162     0.05500
C321        C  0.83619828  0.56078096  0.02760949    -0.20300
C322        C  0.79948781  0.55867290  0.00205599    -0.06800
C323        C  0.77479593  0.52074026  0.00179220     0.14000
C324        C  0.78803239  0.48561556  0.02638293    -0.20300
C325        C  0.82467776  0.48773569  0.05206298    -0.06800
C326        C  0.84907403  0.52588130  0.05273064     0.14000
C327        C  0.88930031  0.52966022  0.07876648    -0.23700
H328        H  0.85473088  0.59014324  0.02806910     0.15300
H329        H  0.76928408  0.45638620  0.02604076     0.15300
C330        C  0.73359975  0.51764054  0.97717915    -0.23600
H331        H  0.90530594  0.56107646  0.07387951     0.05600
H332        H  0.91207067  0.50420950  0.06956825     0.08800
H333        H  0.88167700  0.52663271  0.11308465     0.08800
H334        H  0.73986791  0.52030812  0.94260847     0.08800
H335        H  0.71168628  0.54357895  0.98705918     0.08800
H336        H  0.71716830  0.48657116  0.98281916     0.05500
C337        C  0.79685629  0.09273933  0.67553607    -0.20300
C338        C  0.78789836  0.13015557  0.65213708    -0.06800
C339        C  0.74508871  0.13826501  0.64003807     0.14000
C340        C  0.71324322  0.10819755  0.65024585    -0.20300
C341        C  0.72217768  0.07121899  0.67421457    -0.06800
C342        C  0.76459730  0.06401264  0.68791131     0.14000
C343        C  0.77700404  0.02812715  0.71763960    -0.23700
H344        H  0.82928837  0.08647629  0.68572752     0.15300
H345        H  0.68073290  0.11400689  0.64001105     0.15300
C346        C  0.73182208  0.17931780  0.61856645    -0.23600
H347        H  0.79374597  0.04162047  0.74570540     0.05600
H348        H  0.79891240  0.00592628  0.70108791     0.08800
H349        H  0.74943347  0.00974101  0.73003351     0.08800
H350        H  0.74556316  0.18113252  0.58632079     0.08800
H351        H  0.74253556  0.20715544  0.63765230     0.08800
H352        H  0.69662963  0.18148184  0.61502299     0.05500
C353        C  0.83043076  0.27890889  0.50323749    -0.20300
C354        C  0.84735424  0.31924247  0.51360612    -0.06800
C355        C  0.87324494  0.32301505  0.55019876     0.14000
C356        C  0.87590118  0.28863325  0.57864675    -0.20300
C357        C  0.85593788  0.24911592  0.57036623    -0.06800
C358        C  0.83553850  0.24341939  0.53052757     0.14000
C359        C  0.82076109  0.20012323  0.51556989    -0.23700
H360        H  0.81210613  0.27538241  0.47421933     0.15300
H361        H  0.89366370  0.29322385  0.60786214     0.15300
C362        C  0.89929457  0.36245089  0.55985536    -0.23600
H363        H  0.80937098  0.20125796  0.48213522     0.05600
H364        H  0.79403436  0.18828629  0.53518220     0.08800
H365        H  0.84762477  0.17712248  0.51724609     0.08800
H366        H  0.88714022  0.37778220  0.58917937     0.08800
H367        H  0.89910659  0.38601593  0.53343444     0.08800
H368        H  0.93311078  0.35325238  0.56496430     0.05500
C369        C  0.85529590  0.41739688  0.35207133    -0.20300
C370        C  0.82469019  0.39229423  0.37316845    -0.06800
C371        C  0.79788207  0.36499858  0.34932223     0.14000
C372        C  0.80326473  0.36255602  0.30517969    -0.20300
C373        C  0.83464103  0.38673370  0.28383837    -0.06800
C374        C  0.86092607  0.41480528  0.30777501     0.14000
C375        C  0.89641509  0.44042372  0.28752893    -0.23700
H376        H  0.87589071  0.43807090  0.37065060     0.15300
H377        H  0.78283686  0.34109153  0.28729668     0.15300
C378        C  0.76317391  0.33805214  0.36927357    -0.23600
H379        H  0.91492974  0.45881946  0.31143786     0.05600
H380        H  0.88300582  0.46373706  0.26444805     0.08800
H381        H  0.91887502  0.41866898  0.27109209     0.08800
H382        H  0.75991678  0.34312493  0.40394025     0.08800
H383        H  0.76994049  0.30366985  0.36380625     0.08800
H384        H  0.73205541  0.34608805  0.35440305     0.05500
C385        C  0.96021261  0.17869749  0.76668901    -0.20300
C386        C  0.97781965  0.21984937  0.76972909    -0.06800
C387        C  0.96658096  0.25138036  0.73957770     0.14000
C388        C  0.93795964  0.24095636  0.70704868    -0.20300
C389        C  0.91925925  0.20002233  0.70410899    -0.06800
C390        C  0.93088387  0.16829069  0.73443019     0.14000
C391        C  0.91302482  0.12345295  0.73325625    -0.23700
H392        H  0.96877046  0.15489379  0.79036557     0.15300
H393        H  0.92921776  0.26580653  0.68454164     0.15300
C394        C  0.98309435  0.29674908  0.74144495    -0.23600
H395        H  0.92816919  0.10246386  0.75749885     0.05600
H396        H  0.91879004  0.10908586  0.70158422     0.08800
H397        H  0.87833495  0.12392077  0.74016713     0.08800
H398        H  0.00515239  0.30246027  0.76837854     0.08800
H399        H  0.95582968  0.31906608  0.74474944     0.08800
H400        H  0.00042616  0.30447083  0.71160171     0.05500
C401        C  0.98293875  0.31293664  0.92644246    -0.20300
C402        C  0.98718244  0.26898366  0.91874627    -0.06800
C403        C  0.96796007  0.23913120  0.94684189     0.14000
C404        C  0.94546937  0.25408012  0.98229923    -0.20300
C405        C  0.94119045  0.29798554  0.98987682    -0.06800
C406        C  0.95999139  0.32780077  0.96169466     0.14000
C407        C  0.95617258  0.37519766  0.96914397    -0.23700
H408        H  0.99725096  0.33565644  0.90448928     0.15300
H409        H  0.93130641  0.23129438  0.00430521     0.15300
C410        C  0.97085979  0.19143057  0.94063556    -0.23600
H411        H  0.97282897  0.39409643  0.94413991     0.05600
H412        H  0.97048085  0.38348973  0.00035151     0.08800
H413        H  0.92201789  0.38448638  0.96902717     0.08800
H414        H  0.99001676  0.18246329  0.91249628     0.08800
H415        H  0.93829581  0.17789036  0.93669492     0.08800
H416        H  0.98594693  0.17656730  0.96901204     0.05500
C417        C  0.14389485  0.21699480  0.86462558    -0.20300
C418        C  0.12164233  0.24318038  0.83580864    -0.06800
C419        C  0.14477665  0.26497802  0.80349758     0.14000
C420        C  0.18882179  0.25759351  0.79914929    -0.20300
C421        C  0.21047630  0.22993927  0.82690754    -0.06800
C422        C  0.18796625  0.21008976  0.86047777     0.14000
C423        C  0.21035823  0.18064649  0.89121715    -0.23700
H424        H  0.12637606  0.20048758  0.88951239     0.15300
H425        H  0.20625082  0.27305528  0.77353796     0.15300
C426        C  0.12428321  0.29658870  0.77349604    -0.23600
H427        H  0.18817372  0.16767565  0.91563310     0.05600
H428        H  0.23620687  0.19839373  0.90774524     0.08800
H429        H  0.22437851  0.15327769  0.87382165     0.08800
H430        H  0.09033895  0.30272141  0.78097760     0.08800
H431        H  0.12647504  0.28458992  0.74041987     0.08800
H432        H  0.14131104  0.32774251  0.77551205     0.05500
C433        C  0.51053716  0.09776080  0.71049961    -0.20300
C434        C  0.50411496  0.10342308  0.75433311    -0.06800
C435        C  0.53240027  0.08311560  0.78334973     0.14000
C436        C  0.56648667  0.05868476  0.76764618    -0.20300
C437        C  0.57293944  0.05368658  0.72390871    -0.06800
C438        C  0.54443952  0.07319589  0.69495632     0.14000
C439        C  0.54920833  0.06928864  0.64745233    -0.23700
H440        H  0.48883353  0.11257057  0.68800075     0.15300
H441        H  0.58899180  0.04426228  0.78959020     0.15300
C442        C  0.52821882  0.08836140  0.83078344    -0.23600
H443        H  0.51982369  0.05478706  0.63390641     0.05600
H444        H  0.57655798  0.04908244  0.63802563     0.08800
H445        H  0.55385579  0.10156931  0.63325199     0.08800
H446        H  0.49812429  0.07336882  0.84206604     0.08800
H447        H  0.52858441  0.12287747  0.83898870     0.08800
H448        H  0.55483832  0.07273846  0.84819230     0.05500
C449        C  0.11609989  0.73375247  0.73244922    -0.20300
C450        C  0.15236832  0.70895913  0.72310257    -0.06800
C451        C  0.15902039  0.69616029  0.68035075     0.14000
C452        C  0.12890378  0.70710259  0.64918298    -0.20300
C453        C  0.09294450  0.73190809  0.65850031    -0.06800
C454        C  0.08664865  0.74579924  0.70073885     0.14000
C455        C  0.05038871  0.77506861  0.71228766    -0.23700
H456        H  0.11096850  0.74436269  0.76477427     0.15300
H457        H  0.13392360  0.69684604  0.61670021     0.15300
C458        C  0.19860836  0.67297277  0.66615575    -0.23600
H459        H  0.05239980  0.78547020  0.74594063     0.05600
H460        H  0.01937139  0.75849253  0.70823024     0.08800
H461        H  0.05128569  0.80415054  0.69187931     0.08800
H462        H  0.19938726  0.64043182  0.68014753     0.08800
H463        H  0.22748387  0.69131505  0.67560019     0.08800
H464        H  0.19968503  0.66911774  0.63109252     0.05500
C465        C  0.11782900  0.75783901  0.49608290    -0.20300
C466        C  0.08283901  0.78264353  0.50903382    -0.06800
C467        C  0.07212045  0.81967324  0.48529075     0.14000
C468        C  0.09590204  0.83011216  0.44871576    -0.20300
C469        C  0.13089159  0.80531207  0.43608307    -0.06800
C470        C  0.14208547  0.76885069  0.46012898     0.14000
C471        C  0.17882923  0.74084685  0.44723025    -0.23700
H472        H  0.12617740  0.72952111  0.51426991     0.15300
H473        H  0.08755294  0.85817195  0.43013630     0.15300
C474        C  0.03703064  0.84928076  0.49922907    -0.23600
H475        H  0.18251793  0.71297174  0.46895160     0.05600
H476        H  0.20900139  0.75953322  0.44797915     0.08800
H477        H  0.17343418  0.72855736  0.41459642     0.08800
H478        H  0.04285267  0.85976678  0.53240911     0.08800
H479        H  0.00567902  0.83297189  0.49721914     0.08800
H480        H  0.03536474  0.87831498  0.47879180     0.05500
C481        C  0.31592493  0.63587505  0.79086801    -0.20300
C482        C  0.27368825  0.62547799  0.78012536    -0.06800
C483        C  0.26490709  0.58448872  0.76317355     0.14000
C484        C  0.29901095  0.55718548  0.75297640    -0.20300
C485        C  0.34158070  0.56905778  0.76095228    -0.06800
C486        C  0.34962537  0.60771203  0.78307238     0.14000
C487        C  0.39305018  0.62005014  0.79990941    -0.23700
H488        H  0.32300787  0.66655326  0.80514916     0.15300
H489        H  0.29239760  0.52699001  0.73748093     0.15300
C490        C  0.21983578  0.56872422  0.75707425    -0.23600
H491        H  0.39051113  0.62775571  0.83423645     0.05600
H492        H  0.40505869  0.64874283  0.78265589     0.08800
H493        H  0.41670469  0.59396011  0.79734639     0.08800
H494        H  0.20327832  0.58783395  0.73246055     0.08800
H495        H  0.20217374  0.57097490  0.78755502     0.08800
H496        H  0.21899957  0.53479257  0.74676757     0.05500
C497        C  0.41579148  0.41191986  0.77854045    -0.20300
C498        C  0.41296513  0.42718313  0.73676972    -0.06800
C499        C  0.41012069  0.39752431  0.70290800     0.14000
C500        C  0.40752049  0.35341522  0.71216505    -0.20300
C501        C  0.40712314  0.33847109  0.75433954    -0.06800
C502        C  0.41314629  0.36812200  0.78779968     0.14000
C503        C  0.41706251  0.35394545  0.83353184    -0.23700
H504        H  0.41918050  0.43466550  0.80425414     0.15300
H505        H  0.40349063  0.33083860  0.68640234     0.15300
C506        C  0.40785610  0.41119064  0.65695327    -0.23600
H507        H  0.42601593  0.38088229  0.85468221     0.05600
H508        H  0.44207433  0.32903593  0.83653760     0.08800
H509        H  0.38609213  0.34122279  0.84502574     0.08800
H510        H  0.40800904  0.44636186  0.65264918     0.08800
H511        H  0.37799400  0.39871058  0.64250597     0.08800
H512        H  0.43553352  0.39790679  0.63949455     0.05500
C513        C  0.19394803  0.78759720  0.85812788    -0.20300
C514        C  0.22200844  0.75240438  0.85741768    -0.06800
C515        C  0.25527002  0.75076101  0.88841046     0.14000
C516        C  0.26134347  0.78552773  0.91592448    -0.20300
C517        C  0.23539825  0.82173007  0.91372218    -0.06800
C518        C  0.20023088  0.82211706  0.88580505     0.14000
C519        C  0.16905442  0.85874589  0.88545330    -0.23700
H520        H  0.16739433  0.78892486  0.83611168     0.15300
H521        H  0.28774469  0.78532535  0.93823676     0.15300
C522        C  0.28543785  0.71353366  0.89284860    -0.23600
H523        H  0.14226054  0.85299085  0.86304294     0.05600
H524        H  0.18519456  0.88881517  0.87557098     0.08800
H525        H  0.15544570  0.86283478  0.91774597     0.08800
H526        H  0.30546361  0.71096846  0.86398067     0.08800
H527        H  0.26716892  0.68350940  0.89834763     0.08800
H528        H  0.30754858  0.71748057  0.92018437     0.05500
C529        C  0.23172087  0.91990708  0.07498907    -0.20300
C530        C  0.25998177  0.89280526  0.05375404    -0.06800
C531        C  0.28544310  0.86413905  0.07747544     0.14000
C532        C  0.28005299  0.86145839  0.12169926    -0.20300
C533        C  0.25019642  0.88707428  0.14302539    -0.06800
C534        C  0.22634800  0.91748443  0.11926017     0.14000
C535        C  0.19371902  0.94619053  0.13960629    -0.23700
H536        H  0.21267170  0.94215016  0.05652387     0.15300
H537        H  0.29893584  0.83869871  0.13968601     0.15300
C538        C  0.31885825  0.83692753  0.05640001    -0.23600
H539        H  0.17717571  0.96659335  0.11578626     0.05600
H540        H  0.20956846  0.96787114  0.16262075     0.08800
H541        H  0.16908311  0.92658168  0.15605060     0.08800
H542        H  0.34160384  0.85774210  0.03875162     0.08800
H543        H  0.30377792  0.81410156  0.03405074     0.08800
H544        H  0.33729897  0.81796710  0.08000105     0.05500
C545        C  0.26080505  0.99023786  0.88768866    -0.20300
C546        C  0.28883657  0.97174714  0.91725909    -0.06800
C547        C  0.33034788  0.98876825  0.92173186     0.14000
C548        C  0.34219900  0.02472960  0.89758818    -0.20300
C549        C  0.31415477  0.04386004  0.86807761    -0.06800
C550        C  0.27281811  0.02577956  0.86281766     0.14000
C551        C  0.24086589  0.04331349  0.83144746    -0.23700
H552        H  0.22922272  0.97646922  0.88391759     0.15300
H553        H  0.37411921  0.03755330  0.90151334     0.15300
C554        C  0.36304546  0.96800884  0.95030471    -0.23600
H555        H  0.21020883  0.02537831  0.83245113     0.05600
H556        H  0.25356071  0.04064282  0.79864692     0.08800
H557        H  0.23382457  0.07724678  0.83884087     0.08800
H558        H  0.36694984  0.93390602  0.94143022     0.08800
H559        H  0.35307044  0.97008924  0.98399653     0.08800
H560        H  0.39472141  0.98384633  0.94759954     0.05500
C561        C  0.87537825  0.75491840  0.58869446    -0.20300
C562        C  0.86234622  0.71205937  0.59312646    -0.06800
C563        C  0.89371739  0.67939073  0.59192791     0.14000
C564        C  0.93705279  0.69069884  0.58835634    -0.20300
C565        C  0.94999199  0.73360551  0.58562999    -0.06800
C566        C  0.91876302  0.76608430  0.58528235     0.14000
C567        C  0.93122921  0.81263907  0.58309546    -0.23700
H568        H  0.85158725  0.77997647  0.58945854     0.15300
H569        H  0.96115988  0.66591789  0.58815120     0.15300
C570        C  0.88197490  0.63251808  0.59340890    -0.23600
H571        H  0.90295710  0.83388753  0.58462888     0.05600
H572        H  0.94804824  0.81941212  0.55279874     0.08800
H573        H  0.95255414  0.82058438  0.61015906     0.08800
H574        H  0.85861481  0.62516032  0.56787784     0.08800
H575        H  0.86819220  0.62404938  0.62480644     0.08800
H576        H  0.91024751  0.61177320  0.58862399     0.05500
C577        C  0.77939133  0.64044204  0.79468315    -0.20300
C578        C  0.73704523  0.64751059  0.78164164    -0.06800
C579        C  0.70442298  0.64837600  0.81291621     0.14000
C580        C  0.71522267  0.64403341  0.85596035    -0.20300
C581        C  0.75754628  0.63834663  0.86891071    -0.06800
C582        C  0.79005560  0.63600401  0.83795860     0.14000
C583        C  0.83609569  0.63052106  0.85052951    -0.23700
H584        H  0.80445960  0.63959623  0.77100703     0.15300
H585        H  0.69041273  0.64529046  0.87992205     0.15300
C586        C  0.65791482  0.65223287  0.80146233    -0.23600
H587        H  0.85752026  0.63105511  0.82243149     0.05600
H588        H  0.84048009  0.59940093  0.86702163     0.08800
H589        H  0.84591169  0.65685888  0.87202448     0.08800
H590        H  0.64934613  0.62650859  0.77878651     0.08800
H591        H  0.65130112  0.68409730  0.78730165     0.08800
H592        H  0.63693625  0.64872394  0.82971571     0.05500
C593        C  0.66019645  0.84955172  0.69822362    -0.20300
C594        C  0.67085978  0.83709212  0.65666413    -0.06800
C595        C  0.67271849  0.86893034  0.62429607     0.14000
C596        C  0.66543893  0.91195905  0.63470782    -0.20300
C597        C  0.65605382  0.92444793  0.67639133    -0.06800
C598        C  0.65304063  0.89275156  0.70854151     0.14000
C599        C  0.64414369  0.90442703  0.75408787    -0.23700
H600        H  0.65853827  0.82546914  0.72308397     0.15300
H601        H  0.66748176  0.93630777  0.61011077     0.15300
C602        C  0.68132184  0.85810223  0.57840884    -0.23600
H603        H  0.64523907  0.87599180  0.77538112     0.05600
H604        H  0.61190582  0.91857794  0.75688732     0.08800
H605        H  0.66837502  0.92777255  0.76537248     0.08800
H606        H  0.65808448  0.83365403  0.56733855     0.08800
H607        H  0.71433406  0.84601568  0.57475254     0.08800
H608        H  0.67821074  0.88653733  0.55731868     0.05500
C609        C  0.59026932  0.71055081  0.41924383    -0.20300
C610        C  0.58793542  0.75457620  0.41137541    -0.06800
C611        C  0.61003015  0.78326369  0.43818259     0.14000
C612        C  0.63361873  0.76705051  0.47259224    -0.20300
C613        C  0.63554864  0.72287305  0.48108661    -0.06800
C614        C  0.61368160  0.69419450  0.45368685     0.14000
C615        C  0.61573220  0.64627323  0.45942454    -0.23700
H616        H  0.57395753  0.68880418  0.39788624     0.15300
H617        H  0.64998223  0.78928314  0.49340792     0.15300
C618        C  0.60917877  0.83105589  0.43159092    -0.23600
H619        H  0.59979760  0.62912861  0.43291117     0.05600
H620        H  0.59923714  0.63655948  0.48914262     0.08800
H621        H  0.64952603  0.63577079  0.46041748     0.08800
H622        H  0.58934821  0.84089770  0.40406212     0.08800
H623        H  0.64215115  0.84302881  0.42625514     0.08800
H624        H  0.59600167  0.84658757  0.46037494     0.05500
C625        C  0.79464099  0.52539879  0.55955679    -0.20300
C626        C  0.75119445  0.53559260  0.55483111    -0.06800
C627        C  0.72601774  0.51108807  0.52612502     0.14000
C628        C  0.74487881  0.47720074  0.50379084    -0.20300
C629        C  0.78806193  0.46711973  0.50900716    -0.06800
C630        C  0.81337000  0.49178941  0.53689541     0.14000
C631        C  0.86042986  0.48356578  0.54201515    -0.23700
H632        H  0.81444747  0.54434143  0.58060413     0.15300
H633        H  0.72571009  0.45805273  0.48232710     0.15300
C634        C  0.67918133  0.51953240  0.51907317    -0.23600
H635        H  0.87586980  0.50754544  0.56301857     0.05600
H636        H  0.87635539  0.48510440  0.51053205     0.08800
H637        H  0.86550524  0.45163608  0.55648204     0.08800
H638        H  0.67473706  0.55135335  0.50392318     0.08800
H639        H  0.66191910  0.51809844  0.54985134     0.08800
H640        H  0.66443985  0.49549232  0.49764988     0.05500
C641        C  0.50073472  0.59588331  0.71746966    -0.20300
C642        C  0.48359199  0.56420265  0.69095612    -0.06800
C643        C  0.50300914  0.55643636  0.65127030     0.14000
C644        C  0.53989488  0.57945389  0.64001317    -0.20300
C645        C  0.55748785  0.61119851  0.66660741    -0.06800
C646        C  0.53689245  0.61978529  0.70585521     0.14000
C647        C  0.55251308  0.65347240  0.73631218    -0.23700
H648        H  0.48571619  0.60176994  0.74790747     0.15300
H649        H  0.55460025  0.57276000  0.60960825     0.15300
C650        C  0.48510789  0.52534419  0.61932209    -0.23600
H651        H  0.53277577  0.65483017  0.76557928     0.05600
H652        H  0.55115756  0.68550411  0.72098581     0.08800
H653        H  0.58557515  0.64620447  0.74619087     0.08800
H654        H  0.47961195  0.54220692  0.58865723     0.08800
H655        H  0.45419076  0.51120982  0.62908950     0.08800
H656        H  0.50825213  0.49908461  0.61415203     0.05500
C657        C  0.24563817  0.45800570  0.28357169    -0.20300
C658        C  0.23735634  0.46496091  0.24034234    -0.06800
C659        C  0.26266725  0.44451991  0.20958083     0.14000
C660        C  0.29477152  0.41621953  0.22282627    -0.20300
C661        C  0.30174063  0.40713279  0.26618916    -0.06800
C662        C  0.27723869  0.42915079  0.29701851     0.14000
C663        C  0.28405368  0.42291185  0.34409056    -0.23700
H664        H  0.22610022  0.47410516  0.30692632     0.15300
H665        H  0.31345157  0.39991658  0.19895279     0.15300
C666        C  0.25571549  0.45246566  0.16279795    -0.23600
H667        H  0.26455899  0.44544354  0.36305879     0.05600
H668        H  0.31808985  0.42860374  0.35217029     0.08800
H669        H  0.27448585  0.39006909  0.35374106     0.08800
H670        H  0.25935774  0.48714238  0.15576178     0.08800
H671        H  0.22321906  0.44190540  0.15343275     0.08800
H672        H  0.27902882  0.43475634  0.14305895     0.05500
C673        C  0.13807377  0.62453233  0.26329474    -0.20300
C674        C  0.16313128  0.60627691  0.23128876    -0.06800
C675        C  0.18916150  0.63304763  0.20586472     0.14000
C676        C  0.19174486  0.67692131  0.21495340    -0.20300
C677        C  0.16851476  0.69511864  0.24850120    -0.06800
C678        C  0.14027880  0.66860616  0.27223278     0.14000
C679        C  0.11373457  0.68586953  0.30815111    -0.23700
H680        H  0.11763479  0.60389240  0.28223857     0.15300
H681        H  0.21256807  0.69712046  0.19596451     0.15300
C682        C  0.21373877  0.61556577  0.16865756    -0.23600
H683        H  0.09487538  0.66025735  0.32407830     0.05600
H684        H  0.09086717  0.70991926  0.29573808     0.08800
H685        H  0.13472492  0.70075993  0.33243400     0.08800
H686        H  0.19145491  0.59946956  0.14634826     0.08800
H687        H  0.23798293  0.59229861  0.17973506     0.08800
H688        H  0.23067787  0.64130037  0.15089129     0.05500
C689        C  0.02675594  0.45639096  0.14451187    -0.20300
C690        C  0.01381578  0.42101304  0.16897965    -0.06800
C691        C  0.03742789  0.40952418  0.20543317     0.14000
C692        C  0.07308842  0.43420588  0.21698193    -0.20300
C693        C  0.08611124  0.46987835  0.19270718    -0.06800
C694        C  0.06301814  0.48057736  0.15542723     0.14000
C695        C  0.07726286  0.51607386  0.12597371    -0.23700
H696        H  0.00844935  0.46493692  0.11648094     0.15300
H697        H  0.09085907  0.42575370  0.24536634     0.15300
C698        C  0.02424470  0.37215642  0.23294871    -0.23600
H699        H  0.05772569  0.51708173  0.09651016     0.05600
H700        H  0.11100852  0.51108902  0.11657954     0.08800
H701        H  0.07395601  0.54757780  0.14152164     0.08800
H702        H  0.02548314  0.34216338  0.21426253     0.08800
H703        H  0.99126650  0.37702289  0.24479214     0.08800
H704        H  0.04561905  0.36831716  0.26088010     0.05500
C705        C  0.36320873  0.22792698  0.40579927    -0.20300
C706        C  0.32015163  0.21735276  0.41181609    -0.06800
C707        C  0.28838271  0.24163265  0.39119850     0.14000
C708        C  0.30046614  0.27443147  0.36302513    -0.20300
C709        C  0.34365635  0.28324770  0.35446378    -0.06800
C710        C  0.37548664  0.26053102  0.37730402     0.14000
C711        C  0.42230803  0.27066873  0.37245601    -0.23700
H712        H  0.38735805  0.20954797  0.42241178     0.15300
H713        H  0.27589515  0.29204993  0.34624286     0.15300
C714        C  0.24170967  0.23275064  0.39876164    -0.23600
H715        H  0.44202902  0.25235529  0.39552644     0.05600
H716        H  0.42794994  0.30526369  0.37817453     0.08800
H717        H  0.43344398  0.26207890  0.34018962     0.08800
H718        H  0.23448161  0.23596210  0.43314066     0.08800
H719        H  0.23354740  0.19985080  0.38834984     0.08800
H720        H  0.22106780  0.25541550  0.38093249     0.05500
C721        C  0.35045038  0.13441721  0.56724477    -0.20300
C722        C  0.30923257  0.14262225  0.55222270    -0.06800
C723        C  0.27625836  0.15146312  0.58132818     0.14000
C724        C  0.28580146  0.15393981  0.62496696    -0.20300
C725        C  0.32768880  0.14822618  0.63985535    -0.06800
C726        C  0.36015081  0.13690778  0.61070081     0.14000
C727        C  0.40487246  0.12653502  0.62517853    -0.23700
H728        H  0.37533772  0.12671759  0.54465168     0.15300
H729        H  0.26086354  0.16213877  0.64730216     0.15300
C730        C  0.23140239  0.15933338  0.56613291    -0.23600
H731        H  0.42500688  0.11524265  0.59848400     0.05600
H732        H  0.40386857  0.10077715  0.64961085     0.08800
H733        H  0.42058402  0.15532757  0.63854998     0.08800
H734        H  0.21931344  0.13066494  0.54917822     0.08800
H735        H  0.23098163  0.18722388  0.54412930     0.08800
H736        H  0.20946158  0.16607495  0.59295628     0.05500
C737        C  0.24015709  0.06590354  0.38864289    -0.20300
C738        C  0.27398784  0.06453386  0.41791866    -0.06800
C739        C  0.29705061  0.02600136  0.42313454     0.14000
C740        C  0.28460398  0.98958364  0.40021307    -0.20300
C741        C  0.25066938  0.99082580  0.37106499    -0.06800
C742        C  0.22833969  0.02972410  0.36493897     0.14000
C743        C  0.19134676  0.03321734  0.33444535    -0.23700
H744        H  0.22288447  0.09560148  0.38431741     0.15300
H745        H  0.30210013  0.96000896  0.40447802     0.15300
C746        C  0.33613492  0.02344342  0.45104700    -0.23600
H747        H  0.17638572  0.06535781  0.33545742     0.05600
H748        H  0.16651643  0.00915026  0.34272821     0.08800
H749        H  0.20247930  0.02798248  0.30141895     0.08800
H750        H  0.32745104  0.02756806  0.48487876     0.08800
H751        H  0.35942334  0.04856971  0.44150883     0.08800
H752        H  0.35218006  0.99195113  0.44832156     0.05500
C753        C  0.45030936  0.35445541  0.20854668    -0.20300
C754        C  0.42613333  0.32103053  0.22648221    -0.06800
C755        C  0.43145438  0.27884329  0.21110248     0.14000
C756        C  0.45999627  0.27152571  0.17760190    -0.20300
C757        C  0.48344895  0.30508595  0.15917252    -0.06800
C758        C  0.47904962  0.34698915  0.17519061     0.14000
C759        C  0.50302631  0.38419996  0.15591514    -0.23700
H760        H  0.44607785  0.38673114  0.22021338     0.15300
H761        H  0.46334321  0.23953184  0.16490491     0.15300
C762        C  0.40554516  0.24172270  0.22800445    -0.23600
H763        H  0.49424755  0.41495750  0.17104881     0.05600
H764        H  0.49564516  0.38668195  0.12146602     0.08800
H765        H  0.53784636  0.37976746  0.16024931     0.08800
H766        H  0.37097665  0.24874763  0.22489260     0.08800
H767        H  0.41359303  0.23572457  0.26185403     0.08800
H768        H  0.41205016  0.21176485  0.21035193     0.05500
C769        C  0.64634475  0.27156815  0.11610511    -0.20300
C770        C  0.62459705  0.29634226  0.08581245    -0.06800
C771        C  0.64781666  0.32600904  0.06076451     0.14000
C772        C  0.69216110  0.33007896  0.06675435    -0.20300
C773        C  0.71385133  0.30610011  0.09794291    -0.12400
C774        C  0.69042345  0.27615488  0.12278882     0.14000
C775        C  0.71135275  0.24845286  0.15617892    -0.23700
H776        H  0.62837684  0.24893543  0.13531456     0.15300
H777        H  0.70974039  0.35336918  0.04798915     0.15300
C778        C  0.62577048  0.35502010  0.02933372    -0.23600
H779        H  0.68865045  0.22482497  0.17000136     0.05600
H780        H  0.72322014  0.26847181  0.18273746     0.08800
H781        H  0.73816544  0.23040809  0.14191587     0.08800
H782        H  0.60066618  0.37369724  0.04571329     0.08800
H783        H  0.61111166  0.33594408  0.00352079     0.08800
H784        H  0.64840870  0.37801422  0.01439730     0.05500
C785        C  0.45352245  0.28368691  0.99393364    -0.20300
C786        C  0.48802669  0.25880234  0.00805461    -0.06800
C787        C  0.49750337  0.22049399  0.98631390     0.14000
C788        C  0.47321158  0.20905226  0.95054723    -0.20300
C789        C  0.43814160  0.23353988  0.93648600    -0.06800
C790        C  0.42819694  0.27153041  0.95903247     0.14000
C791        C  0.39089231  0.29954532  0.94741770    -0.23700
H792        H  0.44609799  0.31291299  0.01074851     0.15300
H793        H  0.48141240  0.17979919  0.93416859     0.15300
C794        C  0.53142265  0.18954430  0.00078969    -0.23600
H795        H  0.38772250  0.32718958  0.96922553     0.05600
H796        H  0.36078257  0.28080758  0.94929091     0.08800
H797        H  0.39526224  0.31261983  0.91493591     0.08800
H798        H  0.51698472  0.15731299  0.00516939     0.08800
H799        H  0.54626453  0.19819579  0.03148357     0.08800
H800        H  0.55675118  0.18755823  0.97624295     0.05500
loop_ 
_geom_bond_atom_site_label_1 
_geom_bond_atom_site_label_2 
_geom_bond_distance 
_geom_bond_site_symmetry_2 
_ccdc_geom_bond_type 
C1            C2   1.409       .  A
C1            C6   1.405       .  A
C1          C770   1.487       .  S
C2            C3   1.410       .  A
C2            H7   1.083       .  S
C3            C4   1.403       .  A
C3          C786   1.491       .  S
C4            C5   1.400       .  A
C4            H8   1.085       .  S
C5            C6   1.400       .  A
C5          C757   1.481       .  S
C6            H9   1.084       .  S
C10          C11   1.403       .  A
C10          C15   1.404       .  A
C10         C722   1.478       .  S
C11          C12   1.406       .  A
C11          H16   1.083       .  S
C12          C13   1.404       .  A
C12         C738   1.487       .  S
C13          C14   1.403       .  A
C13          H17   1.084       .  S
C14          C15   1.402       .  A
C14         C706   1.479       .  S
C15          H18   1.084       .  S
C19          C20   1.405       .  A
C19          C24   1.406       .  A
C19         C674   1.485       .  S
C20          C21   1.401       .  A
C20          H25   1.084       .  S
C21          C22   1.400       .  A
C21         C658   1.479       .  S
C22          C23   1.404       .  A
C22          H26   1.084       .  S
C23          C24   1.409       .  A
C23         C693   1.489       .  S
C24          H27   1.082       .  S
C28         C661   1.491       .  S
C28          N29   1.360       .  A
C28          N33   1.359       .  A
N29          C30   1.358       .  A
C30         C754   1.481       .  S
C30          N31   1.357       .  A
N31          C32   1.357       .  A
C32         C709   1.487       .  S
C32          N33   1.360       .  A
Zn34         O38   1.930       .  S
Zn34         O39   2.002       .  S
Zn34         O43   1.990       .  S
Zn34         O50   2.006       .  S
Zn35         O38   1.951       .  S
Zn35         O40   2.010       .  S
Zn35         O42   2.037       .  S
Zn35         O46   2.044       .  S
Zn36         O38   1.951       .  S
Zn36         O41   2.040       .  S
Zn36         O44   2.049       .  S
Zn36         O47   2.018       .  S
Zn37         O38   1.945       .  S
Zn37         O45   2.045       .  S
Zn37         O48   2.009       .  S
Zn37         O49   2.034       .  S
O39          C51   1.271       .  A
O40          C52   1.273       .  A
O41          C53   1.277       .  A
O42          C51   1.277       .  A
O43          C53   1.270       .  A
O44          C52   1.279       .  A
O45          C54   1.278       .  A
O46          C55   1.278       .  A
O47          C54   1.274       .  A
O48          C55   1.274       .  A
O49          C56   1.275       .  A
O50          C56   1.273       .  A
C51         C626   1.493       .  S
C52         C562   1.489       .  S
C53         C613   1.486       .  S
C54         C594   1.494       .  S
C55         C578   1.489       .  S
C56         C645   1.497       .  S
C57          C58   1.405   1_554  A
C57          C62   1.404   1_554  A
C57         C530   1.481       .  S
C58          C59   1.405       .  A
C58          H63   1.083   1_556  S
C59          C60   1.401       .  A
C59         C546   1.483       .  S
C60          C61   1.400       .  A
C60          H64   1.084       .  S
C61          C62   1.401       .  A
C61         C517   1.478       .  S
C62          H65   1.084       .  S
C66          C67   1.404       .  A
C66          C71   1.410       .  A
C66         C498   1.483       .  S
C67          C68   1.404       .  A
C67          H72   1.084       .  S
C68          C69   1.401       .  A
C68         C642   1.484       .  S
C69          C70   1.403       .  A
C69          H73   1.084       .  S
C70          C71   1.407       .  A
C70         C485   1.493       .  S
C71          H74   1.084       .  S
C75          C76   1.407   1_655  A
C75          C80   1.407   1_655  A
C75         C565   1.486       .  S
C76          C77   1.407       .  A
C76          H81   1.082   1_455  S
C77          C78   1.403       .  A
C77         C466   1.490       .  S
C78          C79   1.404       .  A
C78          H82   1.084       .  S
C79          C80   1.405       .  A
C79         C453   1.491       .  S
C80          H83   1.082       .  S
C84         C514   1.501       .  S
C84          N85   1.362       .  A
C84          N89   1.358       .  A
N85          C86   1.361       .  A
C86         C450   1.497       .  S
C86          N87   1.360       .  A
N87          C88   1.358       .  A
C88         C482   1.487       .  S
C88          N89   1.358       .  A
Zn90         O94   1.936       .  S
Zn90         O95   2.013       .  S
Zn90         O99   2.007       .  S
Zn90        O106   1.999       .  S
Zn91         O94   1.946       .  S
Zn91         O96   1.991       .  S
Zn91         O98   2.044       .  S
Zn91        O102   2.047       .  S
Zn92         O94   1.958       .  S
Zn92         O97   2.043       .  S
Zn92        O100   2.060       .  S
Zn92        O103   2.005       .  S
Zn93         O94   1.957       .  S
Zn93        O101   2.044       .  S
Zn93        O104   2.020       .  S
Zn93        O105   2.037       .  S
O95         C107   1.274       .  A
O96         C108   1.272       .  A
O97         C109   1.278       .  A
O98         C107   1.276       .  A
O99         C109   1.271       .  A
O100        C108   1.279       .  A
O101        C110   1.277       .  A
O102        C111   1.277       .  A
O103        C110   1.273       .  A
O104        C111   1.273       .  A
O105        C112   1.276       .  A
O106        C112   1.274       .  A
C107        C789   1.503       .  S
C108        C501   1.484       .  S
C109        C434   1.490       .  S
C110        C725   1.482       .  S
C111        C421   1.478       .  S
C112        C549   1.495       .  S
C113        C114   1.408       .  A
C113        C118   1.409       .  A
C113        C418   1.489       .  S
C114        C115   1.403       .  A
C114        H119   1.084       .  S
C115        C116   1.398   1_455  A
C115        C386   1.474   1_455  S
C116        C117   1.398   1_655  A
C116        H120   1.085       .  S
C117        C118   1.406       .  A
C117        C402   1.477   1_455  S
C118        H121   1.084       .  S
C122        C123   1.405       .  A
C122        C127   1.406       .  A
C122        C370   1.480       .  S
C123        C124   1.405       .  A
C123        H128   1.084       .  S
C124        C125   1.401       .  A
C124        C629   1.483       .  S
C125        C126   1.405       .  A
C125        H129   1.084       .  S
C126        C127   1.403       .  A
C126        C354   1.487       .  S
C127        H130   1.084       .  S
C131        C132   1.409       .  A
C131        C136   1.408       .  A
C131        C597   1.490       .  S
C132        C133   1.405   1_565  A
C132        H137   1.083       .  S
C133        C134   1.398       .  A
C133        C437   1.479       .  S
C134        C135   1.402       .  A
C134        H138   1.084       .  S
C135        C136   1.406   1_545  A
C135        C341   1.489       .  S
C136        H139   1.084       .  S
C140        C338   1.491       .  S
C140        N141   1.363       .  A
C140        N145   1.360       .  A
N141        C142   1.362       .  A
C142        C357   1.492       .  S
C142        N143   1.357       .  A
N143        C144   1.355       .  A
C144        C389   1.491       .  S
C144        N145   1.356       .  A
Zn146       O150   1.953       .  S
Zn146       O151   2.039       .  S
Zn146       O155   2.034       .  S
Zn146       O162   2.002       .  S
Zn147       O150   1.934       .  S
Zn147       O152   2.009       .  S
Zn147       O154   2.008       .  S
Zn147       O158   2.003       .  S
Zn148       O150   1.952       .  S
Zn148       O153   2.010       .  S
Zn148       O156   2.029       .  S
Zn148       O159   2.040       .  S
Zn149       O150   1.952       .  S
Zn149       O157   2.005       .  S
Zn149       O160   2.041       .  S
Zn149       O161   2.032       .  S
O151        C163   1.277       .  A
O152        C164   1.272       .  A
O153        C165   1.273       .  A
O154        C163   1.272       .  A
O155        C165   1.276       .  A
O156        C164   1.276       .  A
O157        C166   1.272       .  A
O158        C167   1.273       .  A
O159        C166   1.277       .  A
O160        C167   1.276       .  A
O161        C168   1.276       .  A
O162        C168   1.272       .  A
C163        C773   1.490       .  S
C164        C309   1.487       .  S
C165        C405   1.471   1_554  S
C166        C690   1.476   1_655  S
C167        C373   1.490       .  S
C168        C325   1.480       .  S
C169        C170   1.406       .  A
C169        C174   1.403       .  A
C169        C306   1.481       .  S
C170        C171   1.407   1_545  A
C170        H175   1.082       .  S
C171        C172   1.404       .  A
C171        C293   1.488       .  S
C172        C173   1.401       .  A
C172        H176   1.084       .  S
C173        C174   1.400   1_565  A
C173        C274   1.477       .  S
C174        H177   1.084       .  S
C178        C179   1.409       .  A
C178        C183   1.407       .  A
C178        C258   1.490       .  S
C179        C180   1.405       .  A
C179        H184   1.084       .  S
C180        C181   1.400       .  A
C180        C245   1.480       .  S
C181        C182   1.398       .  A
C181        H185   1.085       .  S
C182        C183   1.405       .  A
C182        C610   1.476       .  S
C183        H186   1.084       .  S
C187        C188   1.405       .  A
C187        C192   1.407       .  A
C187        C581   1.482       .  S
C188        C189   1.399       .  A
C188        H193   1.084       .  S
C189        C190   1.397   1_556  A
C189        C226   1.473   1_556  S
C190        C191   1.400   1_554  A
C190        H194   1.085       .  S
C191        C192   1.407       .  A
C191        C322   1.482   1_556  S
C192        H195   1.083       .  S
C196        C242   1.484       .  S
C196        N197   1.357       .  A
C196        N201   1.360       .  A
N197        C198   1.357       .  A
C198        C277   1.479       .  S
C198        N199   1.356       .  A
N199        C200   1.358       .  A
C200        C229   1.490       .  S
C200        N201   1.362       .  A
Zn202       O206   1.945       .  S
Zn202       O207   2.019       .  S
Zn202       O211   2.024       .  S
Zn202       O218   2.013       .  S
Zn203       O206   1.958       .  S
Zn203       O208   2.015       .  S
Zn203       O210   2.038       .  S
Zn203       O214   2.034       .  S
Zn204       O206   1.956       .  S
Zn204       O209   2.050       .  S
Zn204       O212   2.046       .  S
Zn204       O215   2.024       .  S
Zn205       O206   1.954       .  S
Zn205       O213   2.019       .  S
Zn205       O216   2.005       .  S
Zn205       O217   2.022       .  S
O207        C219   1.275       .  A
O208        C220   1.274       .  A
O209        C221   1.277       .  A
O210        C219   1.276       .  A
O211        C221   1.276       .  A
O212        C220   1.279       .  A
O213        C222   1.274       .  A
O214        C223   1.275       .  A
O215        C222   1.275       .  A
O216        C223   1.271       .  A
O217        C224   1.274       .  A
O218        C224   1.274       .  A
C219        C677   1.492       .  S
C220        C469   1.479       .  S
C221        C261   1.496       .  S
C222        C741   1.485       .  S
C223        C290   1.474       .  S
C224        C533   1.489       .  S
C225        C226   1.398       .  A
C225        C230   1.403       .  A
C225        H232   1.084       .  S
C226        C227   1.408       .  A
C227        C228   1.403       .  A
C227        C234   1.507       .  S
C228        C229   1.408       .  A
C228        H233   1.084       .  S
C229        C230   1.423       .  A
C230        C231   1.509       .  S
C231        H235   1.111       .  S
C231        H236   1.110       .  S
C231        H237   1.108       .  S
C234        H238   1.111       .  S
C234        H239   1.110   1_554  S
C234        H240   1.111       .  S
C241        C242   1.405       .  A
C241        C246   1.403       .  A
C241        H248   1.084       .  S
C242        C243   1.418       .  A
C243        C244   1.405       .  A
C243        C250   1.508       .  S
C244        C245   1.401       .  A
C244        H249   1.084       .  S
C245        C246   1.415       .  A
C246        C247   1.508       .  S
C247        H251   1.110       .  S
C247        H252   1.108       .  S
C247        H253   1.110       .  S
C250        H254   1.110       .  S
C250        H255   1.109       .  S
C250        H256   1.111       .  S
C257        C258   1.403       .  A
C257        C262   1.410       .  A
C257        H264   1.084       .  S
C258        C259   1.413       .  A
C259        C260   1.407       .  A
C259        C266   1.508       .  S
C260        C261   1.408       .  A
C260        H265   1.084       .  S
C261        C262   1.421       .  A
C262        C263   1.508       .  S
C263        H267   1.111       .  S
C263        H268   1.110       .  S
C263        H269   1.111       .  S
C266        H270   1.111       .  S
C266        H271   1.108       .  S
C266        H272   1.111       .  S
C273        C274   1.403       .  A
C273        C278   1.405       .  A
C273        H280   1.084       .  S
C274        C275   1.413       .  A
C275        C276   1.399       .  A
C275        C282   1.508       .  S
C276        C277   1.404       .  A
C276        H281   1.085       .  S
C277        C278   1.415       .  A
C278        C279   1.507       .  S
C279        H283   1.111       .  S
C279        H284   1.110       .  S
C279        H285   1.108       .  S
C282        H286   1.108       .  S
C282        H287   1.110       .  S
C282        H288   1.110       .  S
C289        C290   1.402       .  A
C289        C294   1.405       .  A
C289        H296   1.084       .  S
C290        C291   1.409       .  A
C291        C292   1.403       .  A
C291        C298   1.507       .  S
C292        C293   1.407   1_455  A
C292        H297   1.084   1_455  S
C293        C294   1.418   1_655  A
C294        C295   1.508   1_565  S
C295        H299   1.111       .  S
C295        H300   1.110   1_455  S
C295        H301   1.107       .  S
C298        H302   1.110       .  S
C298        H303   1.110       .  S
C298        H304   1.111       .  S
C305        C306   1.402       .  A
C305        C310   1.405       .  A
C305        H312   1.084       .  S
C306        C307   1.411       .  A
C307        C308   1.404       .  A
C307        C314   1.507       .  S
C308        C309   1.407       .  A
C308        H313   1.084       .  S
C309        C310   1.419       .  A
C310        C311   1.508       .  S
C311        H315   1.111       .  S
C311        H316   1.109       .  S
C311        H317   1.110       .  S
C314        H318   1.110       .  S
C314        H319   1.109       .  S
C314        H320   1.111       .  S
C321        C322   1.404       .  A
C321        C326   1.404       .  A
C321        H328   1.084       .  S
C322        C323   1.413       .  A
C323        C324   1.404       .  A
C323        C330   1.508   1_554  S
C324        C325   1.405       .  A
C324        H329   1.084       .  S
C325        C326   1.414       .  A
C326        C327   1.507       .  S
C327        H331   1.111       .  S
C327        H332   1.110       .  S
C327        H333   1.110       .  S
C330        H334   1.108       .  S
C330        H335   1.110       .  S
C330        H336   1.111       .  S
C337        C338   1.408       .  A
C337        C342   1.404       .  A
C337        H344   1.084       .  S
C338        C339   1.418       .  A
C339        C340   1.404       .  A
C339        C346   1.507       .  S
C340        C341   1.406       .  A
C340        H345   1.084       .  S
C341        C342   1.416       .  A
C342        C343   1.509       .  S
C343        H347   1.111       .  S
C343        H348   1.110       .  S
C343        H349   1.106       .  S
C346        H350   1.104       .  S
C346        H351   1.110       .  S
C346        H352   1.111       .  S
C353        C354   1.405       .  A
C353        C358   1.409       .  A
C353        H360   1.084       .  S
C354        C355   1.413       .  A
C355        C356   1.398       .  A
C355        C362   1.508       .  S
C356        C357   1.408       .  A
C356        H361   1.084       .  S
C357        C358   1.418       .  A
C358        C359   1.506       .  S
C359        H363   1.111       .  S
C359        H364   1.103       .  S
C359        H365   1.110       .  S
C362        H366   1.110       .  S
C362        H367   1.108       .  S
C362        H368   1.111       .  S
C369        C370   1.402       .  A
C369        C374   1.408       .  A
C369        H376   1.084       .  S
C370        C371   1.413       .  A
C371        C372   1.402       .  A
C371        C378   1.508       .  S
C372        C373   1.407       .  A
C372        H377   1.085       .  S
C373        C374   1.420       .  A
C374        C375   1.508       .  S
C375        H379   1.111       .  S
C375        H380   1.110       .  S
C375        H381   1.111       .  S
C378        H382   1.108       .  S
C378        H383   1.110       .  S
C378        H384   1.110       .  S
C385        C386   1.401       .  A
C385        C390   1.407       .  A
C385        H392   1.084       .  S
C386        C387   1.410       .  A
C387        C388   1.399       .  A
C387        C394   1.509       .  S
C388        C389   1.408       .  A
C388        H393   1.084       .  S
C389        C390   1.421       .  A
C390        C391   1.507       .  S
C391        H395   1.111       .  S
C391        H396   1.110       .  S
C391        H397   1.109       .  S
C394        H398   1.108   1_655  S
C394        H399   1.111       .  S
C394        H400   1.110   1_655  S
C401        C402   1.403       .  A
C401        C406   1.405       .  A
C401        H408   1.084       .  S
C402        C403   1.415       .  A
C403        C404   1.403       .  A
C403        C410   1.508       .  S
C404        C405   1.401       .  A
C404        H409   1.085   1_556  S
C405        C406   1.411       .  A
C406        C407   1.506       .  S
C407        H411   1.111       .  S
C407        H412   1.110   1_556  S
C407        H413   1.110       .  S
C410        H414   1.108       .  S
C410        H415   1.110       .  S
C410        H416   1.110       .  S
C417        C418   1.405       .  A
C417        C422   1.405       .  A
C417        H424   1.084       .  S
C418        C419   1.419       .  A
C419        C420   1.408       .  A
C419        C426   1.508       .  S
C420        C421   1.402       .  A
C420        H425   1.084       .  S
C421        C422   1.410       .  A
C422        C423   1.506       .  S
C423        H427   1.111       .  S
C423        H428   1.110       .  S
C423        H429   1.110       .  S
C426        H430   1.108       .  S
C426        H431   1.110       .  S
C426        H432   1.111       .  S
C433        C434   1.406       .  A
C433        C438   1.403       .  A
C433        H440   1.084       .  S
C434        C435   1.421       .  A
C435        C436   1.407       .  A
C435        C442   1.508       .  S
C436        C437   1.401       .  A
C436        H441   1.084       .  S
C437        C438   1.413       .  A
C438        C439   1.508       .  S
C439        H443   1.110       .  S
C439        H444   1.108       .  S
C439        H445   1.110       .  S
C442        H446   1.109       .  S
C442        H447   1.110       .  S
C442        H448   1.111       .  S
C449        C450   1.410       .  A
C449        C454   1.409       .  A
C449        H456   1.084       .  S
C450        C451   1.421       .  A
C451        C452   1.402       .  A
C451        C458   1.509       .  S
C452        C453   1.403       .  A
C452        H457   1.084       .  S
C453        C454   1.414       .  A
C454        C455   1.508       .  S
C455        H459   1.111       .  S
C455        H460   1.107       .  S
C455        H461   1.110       .  S
C458        H462   1.106       .  S
C458        H463   1.110       .  S
C458        H464   1.111       .  S
C465        C466   1.407       .  A
C465        C470   1.404       .  A
C465        H472   1.084       .  S
C466        C467   1.416       .  A
C467        C468   1.408       .  A
C467        C474   1.507       .  S
C468        C469   1.404       .  A
C468        H473   1.084       .  S
C469        C470   1.410       .  A
C470        C471   1.507       .  S
C471        H475   1.111       .  S
C471        H476   1.110       .  S
C471        H477   1.111       .  S
C474        H478   1.110       .  S
C474        H479   1.107       .  S
C474        H480   1.111       .  S
C481        C482   1.403       .  A
C481        C486   1.400       .  A
C481        H488   1.083       .  S
C482        C483   1.416       .  A
C483        C484   1.409       .  A
C483        C490   1.507       .  S
C484        C485   1.406       .  A
C484        H489   1.084       .  S
C485        C486   1.419       .  A
C486        C487   1.509       .  S
C487        H491   1.111       .  S
C487        H492   1.110       .  S
C487        H493   1.108       .  S
C490        H494   1.106       .  S
C490        H495   1.110       .  S
C490        H496   1.111       .  S
C497        C498   1.399       .  A
C497        C502   1.400       .  A
C497        H504   1.085       .  S
C498        C499   1.418       .  A
C499        C500   1.410       .  A
C499        C506   1.507       .  S
C500        C501   1.404       .  A
C500        H505   1.084       .  S
C501        C502   1.418       .  A
C502        C503   1.508       .  S
C503        H507   1.111       .  S
C503        H508   1.111       .  S
C503        H509   1.108       .  S
C506        H510   1.107       .  S
C506        H511   1.110       .  S
C506        H512   1.110       .  S
C513        C514   1.411       .  A
C513        C518   1.403       .  A
C513        H520   1.083       .  S
C514        C515   1.428       .  A
C515        C516   1.405       .  A
C515        C522   1.508       .  S
C516        C517   1.397       .  A
C516        H521   1.085       .  S
C517        C518   1.409       .  A
C518        C519   1.508       .  S
C519        H523   1.111       .  S
C519        H524   1.109       .  S
C519        H525   1.110       .  S
C522        H526   1.108       .  S
C522        H527   1.110       .  S
C522        H528   1.111       .  S
C529        C530   1.401       .  A
C529        C534   1.405       .  A
C529        H536   1.084       .  S
C530        C531   1.412       .  A
C531        C532   1.404       .  A
C531        C538   1.508       .  S
C532        C533   1.407       .  A
C532        H537   1.084       .  S
C533        C534   1.421       .  A
C534        C535   1.508       .  S
C535        H539   1.111       .  S
C535        H540   1.110       .  S
C535        H541   1.111       .  S
C538        H542   1.110       .  S
C538        H543   1.108       .  S
C538        H544   1.111       .  S
C545        C546   1.403       .  A
C545        C550   1.406   1_565  A
C545        H552   1.084       .  S
C546        C547   1.411       .  A
C547        C548   1.402   1_565  A
C547        C554   1.509       .  S
C548        C549   1.410       .  A
C548        H553   1.083       .  S
C549        C550   1.421       .  A
C550        C551   1.508       .  S
C551        H555   1.111       .  S
C551        H556   1.110       .  S
C551        H557   1.110       .  S
C554        H558   1.110       .  S
C554        H559   1.108       .  S
C554        H560   1.111       .  S
C561        C562   1.405       .  A
C561        C566   1.407       .  A
C561        H568   1.084       .  S
C562        C563   1.421       .  A
C563        C564   1.407       .  A
C563        C570   1.509       .  S
C564        C565   1.402       .  A
C564        H569   1.084       .  S
C565        C566   1.413       .  A
C566        C567   1.506       .  S
C567        H571   1.111       .  S
C567        H572   1.109       .  S
C567        H573   1.110       .  S
C570        H574   1.111       .  S
C570        H575   1.109       .  S
C570        H576   1.111       .  S
C577        C578   1.407       .  A
C577        C582   1.408       .  A
C577        H584   1.084       .  S
C578        C579   1.420       .  A
C579        C580   1.402       .  A
C579        C586   1.506       .  S
C580        C581   1.399       .  A
C580        H585   1.085       .  S
C581        C582   1.413       .  A
C582        C583   1.506       .  S
C583        H587   1.111       .  S
C583        H588   1.109       .  S
C583        H589   1.110       .  S
C586        H590   1.110       .  S
C586        H591   1.109       .  S
C586        H592   1.111       .  S
C593        C594   1.407       .  A
C593        C598   1.409       .  A
C593        H600   1.084       .  S
C594        C595   1.421       .  A
C595        C596   1.405       .  A
C595        C602   1.509       .  S
C596        C597   1.402       .  A
C596        H601   1.084       .  S
C597        C598   1.415       .  A
C598        C599   1.507       .  S
C599        H603   1.111       .  S
C599        H604   1.108       .  S
C599        H605   1.110       .  S
C602        H606   1.111       .  S
C602        H607   1.109       .  S
C602        H608   1.111       .  S
C609        C610   1.399       .  A
C609        C614   1.403       .  A
C609        H616   1.084       .  S
C610        C611   1.413       .  A
C611        C612   1.404       .  A
C611        C618   1.507       .  S
C612        C613   1.406       .  A
C612        H617   1.084       .  S
C613        C614   1.421       .  A
C614        C615   1.509       .  S
C615        H619   1.111       .  S
C615        H620   1.109       .  S
C615        H621   1.111       .  S
C618        H622   1.108       .  S
C618        H623   1.110       .  S
C618        H624   1.111       .  S
C625        C626   1.407       .  A
C625        C630   1.404       .  A
C625        H632   1.084       .  S
C626        C627   1.423       .  A
C627        C628   1.407       .  A
C627        C634   1.509       .  S
C628        C629   1.400       .  A
C628        H633   1.084       .  S
C629        C630   1.412       .  A
C630        C631   1.507       .  S
C631        H635   1.111       .  S
C631        H636   1.110       .  S
C631        H637   1.107       .  S
C634        H638   1.110       .  S
C634        H639   1.110       .  S
C634        H640   1.111       .  S
C641        C642   1.403       .  A
C641        C646   1.403       .  A
C641        H648   1.084       .  S
C642        C643   1.412       .  A
C643        C644   1.404       .  A
C643        C650   1.508       .  S
C644        C645   1.411       .  A
C644        H649   1.084       .  S
C645        C646   1.421       .  A
C646        C647   1.507       .  S
C647        H651   1.111       .  S
C647        H652   1.110       .  S
C647        H653   1.106       .  S
C650        H654   1.111       .  S
C650        H655   1.107       .  S
C650        H656   1.110       .  S
C657        C658   1.400       .  A
C657        C662   1.406       .  A
C657        H664   1.084       .  S
C658        C659   1.409       .  A
C659        C660   1.404       .  A
C659        C666   1.507       .  S
C660        C661   1.409       .  A
C660        H665   1.083       .  S
C661        C662   1.420       .  A
C662        C663   1.508       .  S
C663        H667   1.111       .  S
C663        H668   1.110       .  S
C663        H669   1.109       .  S
C666        H670   1.110       .  S
C666        H671   1.109       .  S
C666        H672   1.111       .  S
C673        C674   1.403       .  A
C673        C678   1.409       .  A
C673        H680   1.084       .  S
C674        C675   1.412       .  A
C675        C676   1.404       .  A
C675        C682   1.508       .  S
C676        C677   1.407       .  A
C676        H681   1.084       .  S
C677        C678   1.420       .  A
C678        C679   1.507       .  S
C679        H683   1.111       .  S
C679        H684   1.110       .  S
C679        H685   1.110       .  S
C682        H686   1.111       .  S
C682        H687   1.109       .  S
C682        H688   1.111       .  S
C689        C690   1.403       .  A
C689        C694   1.406       .  A
C689        H696   1.084       .  S
C690        C691   1.410       .  A
C691        C692   1.404       .  A
C691        C698   1.507       .  S
C692        C693   1.407       .  A
C692        H697   1.084       .  S
C693        C694   1.417       .  A
C694        C695   1.508       .  S
C695        H699   1.111       .  S
C695        H700   1.110       .  S
C695        H701   1.107       .  S
C698        H702   1.110       .  S
C698        H703   1.110   1_455  S
C698        H704   1.111       .  S
C705        C706   1.401       .  A
C705        C710   1.406       .  A
C705        H712   1.084       .  S
C706        C707   1.410       .  A
C707        C708   1.403       .  A
C707        C714   1.507       .  S
C708        C709   1.406       .  A
C708        H713   1.084       .  S
C709        C710   1.419       .  A
C710        C711   1.508       .  S
C711        H715   1.111       .  S
C711        H716   1.110       .  S
C711        H717   1.108       .  S
C714        H718   1.110       .  S
C714        H719   1.110       .  S
C714        H720   1.111       .  S
C721        C722   1.399       .  A
C721        C726   1.403       .  A
C721        H728   1.085       .  S
C722        C723   1.411       .  A
C723        C724   1.407       .  A
C723        C730   1.505       .  S
C724        C725   1.405       .  A
C724        H729   1.084       .  S
C725        C726   1.418       .  A
C726        C727   1.509       .  S
C727        H731   1.111       .  S
C727        H732   1.111       .  S
C727        H733   1.109       .  S
C730        H734   1.110       .  S
C730        H735   1.110       .  S
C730        H736   1.111       .  S
C737        C738   1.404       .  A
C737        C742   1.406       .  A
C737        H744   1.084       .  S
C738        C739   1.416       .  A
C739        C740   1.404   1_545  A
C739        C746   1.509       .  S
C740        C741   1.404       .  A
C740        H745   1.084       .  S
C741        C742   1.417   1_565  A
C742        C743   1.508       .  S
C743        H747   1.111       .  S
C743        H748   1.110       .  S
C743        H749   1.110       .  S
C746        H750   1.107       .  S
C746        H751   1.110       .  S
C746        H752   1.111   1_545  S
C753        C754   1.404       .  A
C753        C758   1.405       .  A
C753        H760   1.084       .  S
C754        C755   1.417       .  A
C755        C756   1.403       .  A
C755        C762   1.508       .  S
C756        C757   1.402       .  A
C756        H761   1.084       .  S
C757        C758   1.413       .  A
C758        C759   1.507       .  S
C759        H763   1.111       .  S
C759        H764   1.110       .  S
C759        H765   1.109       .  S
C762        H766   1.111       .  S
C762        H767   1.109       .  S
C762        H768   1.111       .  S
C769        C770   1.403       .  A
C769        C774   1.404       .  A
C769        H776   1.084       .  S
C770        C771   1.414       .  A
C771        C772   1.408       .  A
C771        C778   1.507       .  S
C772        C773   1.408       .  A
C772        H777   1.084       .  S
C773        C774   1.419       .  A
C774        C775   1.509       .  S
C775        H779   1.111       .  S
C775        H780   1.109       .  S
C775        H781   1.110       .  S
C778        H782   1.110       .  S
C778        H783   1.108       .  S
C778        H784   1.111       .  S
C785        C786   1.405   1_556  A
C785        C790   1.407       .  A
C785        H792   1.084   1_556  S
C786        C787   1.415   1_554  A
C787        C788   1.405       .  A
C787        C794   1.509   1_556  S
C788        C789   1.411       .  A
C788        H793   1.084       .  S
C789        C790   1.422       .  A
C790        C791   1.507       .  S
C791        H795   1.111       .  S
C791        H796   1.110       .  S
C791        H797   1.107       .  S
C794        H798   1.111       .  S
C794        H799   1.106       .  S
C794        H800   1.110   1_554  S
