geometry optimzed in LAMMPS
_audit_creation_date              2020-11-30 
_audit_creation_method            'lammps2cif' 
_symmetry_space_group_name_H-M    'P1' 
_symmetry_Int_Tables_number       1 
_symmetry_cell_setting            triclinic 
loop_ 
_symmetry_equiv_pos_as_xyz 
  x,y,z 
_cell_length_a                    40.6205816 
_cell_length_b                    39.98332793415065 
_cell_length_c                    41.824982496449536 
_cell_angle_alpha                 91.9179669951973 
_cell_angle_beta                  86.91858530753895 
_cell_angle_gamma                 89.3829623122977 
loop_ 
_atom_site_label 
_atom_site_type_symbol 
_atom_site_fract_x 
_atom_site_fract_y 
_atom_site_fract_z 
_atom_site_charge 
N1          N  0.66198094  0.98462466  0.41759797    -0.27800
N2          N  0.69007428  0.98238014  0.43203216    -0.35600
C3          C  0.71535071  0.98240186  0.40991477     0.00600
C4          C  0.70265888  0.98418422  0.38003458     0.06600
C5          C  0.66873833  0.98572294  0.38577489    -0.06500
H6          H  0.74111106  0.98155916  0.41524448     0.07300
H7          H  0.65039557  0.98864415  0.36823610     0.08500
Cu8        Cu  0.69356836  0.98142843  0.48116003     0.44200
Cu9        Cu  0.61588946  0.98920284  0.44200320     0.42000
Cu10       Cu  0.61968632  0.00560105  0.02747230     0.43900
N11         N  0.69145648  0.98750869  0.03054866    -0.35200
N12         N  0.66468184  0.99810201  0.04732565    -0.29400
C13         C  0.67133799  0.00087637  0.07840392    -0.05500
C14         C  0.70372738  0.99074823  0.08157982     0.06700
C15         C  0.71578655  0.98285051  0.05056232     0.00500
H16         H  0.65383607  0.01005405  0.09712595     0.08100
H17         H  0.74042172  0.97424223  0.04303889     0.07200
N18         N  0.57601611  0.00335434  0.00413458    -0.36600
N19         N  0.57432387  0.99729163  0.47294208    -0.28800
C20         C  0.54235138  0.99665301  0.46586944    -0.04000
C21         C  0.52314652  0.00195028  0.99404786     0.04600
C22         C  0.54532179  0.00632837  0.01771623     0.02700
H23         H  0.53369644  0.99201583  0.44212393     0.07800
H24         H  0.53958654  0.01125005  0.04301182     0.06600
C25         C  0.77760574  0.99507357  0.19850477     0.86000
C26         C  0.79945944  0.02613406  0.20119293    -0.54200
C27         C  0.81774878  0.02714481  0.22758871     0.08900
C28         C  0.81142031  0.99788556  0.25007326     0.19900
C29         C  0.80109330  0.96500078  0.20171962    -0.55000
C30         C  0.81848350  0.96622722  0.22883591     0.09000
C31         C  0.75638248  0.99684349  0.23035892    -0.54500
C32         C  0.77388607  0.99777060  0.25733625     0.09600
H33         H  0.80131140  0.04513842  0.18326955     0.14100
H34         H  0.82602911  0.99883544  0.27173607    -0.00100
H35         H  0.80414588  0.94492590  0.18364800     0.14400
H36         H  0.72971660  0.99776217  0.23229801     0.14200
C37         C  0.12556169  0.99013765  0.30028485     0.86000
C38         C  0.10251813  0.02081726  0.29843511    -0.54200
C39         C  0.08393401  0.02051306  0.27218320     0.08900
C40         C  0.08965782  0.98918260  0.24995216     0.19900
C41         C  0.10181044  0.96026791  0.29814142    -0.55000
C42         C  0.08304497  0.95972944  0.27204228     0.09000
C43         C  0.14566891  0.98826541  0.26811006    -0.54500
C44         C  0.12725893  0.98811536  0.24161169     0.09600
H45         H  0.10025505  0.04054158  0.31694089     0.14100
H46         H  0.07408634  0.98864923  0.22894723    -0.00100
H47         H  0.09764210  0.94195711  0.31628403     0.14400
H48         H  0.17244466  0.98752812  0.26650274     0.14200
N49         N  0.23970947  0.99323924  0.08052090    -0.27800
N50         N  0.21175601  0.99496146  0.06578771    -0.35600
C51         C  0.18630810  0.99211372  0.08745755     0.00600
C52         C  0.19865626  0.98790807  0.11729916     0.06600
C53         C  0.23265797  0.98907508  0.11199271    -0.06500
H54         H  0.16062154  0.99304881  0.08188315     0.07300
H55         H  0.25092924  0.98795112  0.12980276     0.08500
Cu56       Cu  0.20888721  0.00077133  0.01679209     0.44200
Cu57       Cu  0.28625159  0.99755866  0.05717946     0.42000
Cu58       Cu  0.28535280  0.00801495  0.47088637     0.43900
N59         N  0.21193089  0.00378339  0.46718757    -0.35200
N60         N  0.24008901  0.00692632  0.45026469    -0.29400
C61         C  0.23411680  0.00670035  0.41889457    -0.05500
C62         C  0.20061933  0.00274008  0.41596038     0.06700
C63         C  0.18730059  0.00115672  0.44703952     0.00500
H64         H  0.25289924  0.00779135  0.39963493     0.08100
H65         H  0.16167976  0.99749912  0.45441967     0.07200
N66         N  0.32794166  0.00685608  0.49602827    -0.36600
N67         N  0.32866794  0.00306418  0.02728030    -0.28800
C68         C  0.36037165  0.00310941  0.03533969    -0.04000
C69         C  0.38047065  0.00748570  0.00789843     0.04600
C70         C  0.35892855  0.00930204  0.48346338     0.02700
H71         H  0.36824168  0.00011703  0.05939140     0.07800
H72         H  0.36523377  0.01124566  0.45814818     0.06600
N73         N  0.95637257  0.71369909  0.07866995    -0.27800
N74         N  0.95478094  0.74172307  0.06283065    -0.35600
C75         C  0.95526255  0.76807561  0.08373507     0.00600
C76         C  0.95716643  0.75616494  0.11427228     0.06600
C77         C  0.95754001  0.72159943  0.11013179    -0.06500
H78         H  0.95251542  0.79391504  0.07734800     0.07300
H79         H  0.95764494  0.70350976  0.12879938     0.08500
Cu80       Cu  0.94810490  0.74306754  0.01402650     0.44200
Cu81       Cu  0.95485965  0.66575651  0.05706998     0.42000
Cu82       Cu  0.94131736  0.66343150  0.47189180     0.43900
N83         N  0.93925302  0.73828163  0.46569057    -0.35200
N84         N  0.93726440  0.70914943  0.45003909    -0.29400
C85         C  0.93321947  0.71464037  0.41888420    -0.05500
C86         C  0.93198460  0.74886341  0.41491486     0.06700
C87         C  0.93609277  0.76304536  0.44503841     0.00500
H88         H  0.93179953  0.69519588  0.40041237     0.08100
H89         H  0.93791840  0.78942553  0.45125681     0.07200
N90         N  0.94745655  0.62086147  0.49829422    -0.36600
N91         N  0.95252234  0.62138863  0.02924926    -0.28800
C92         C  0.95534353  0.58957548  0.03865498    -0.04000
C93         C  0.95214390  0.56798385  0.01225898     0.04600
C94         C  0.94689210  0.58889903  0.48726014     0.02700
H95         H  0.95853156  0.58275777  0.06310088     0.07800
H96         H  0.94291931  0.58141827  0.46268343     0.06600
C97         C  0.93811928  0.82540180  0.29774407     0.86000
C98         C  0.96978693  0.84576872  0.29794026    -0.54200
C99         C  0.97533025  0.86527729  0.27214824     0.08900
C100        C  0.94882033  0.86160590  0.24713341     0.19900
C101        C  0.91051232  0.85155979  0.29246584    -0.55000
C102        C  0.91630600  0.87042626  0.26608397     0.09000
C103        C  0.94073808  0.80508243  0.26597857    -0.54500
C104        C  0.94589271  0.82366026  0.23934190     0.09600
H105        H  0.98617754  0.84540746  0.31761326     0.14100
H106        H  0.95319114  0.87705473  0.22577327    -0.00100
H107        H  0.88771169  0.85466000  0.30687789     0.14400
H108        H  0.93857503  0.77805506  0.26477248     0.14200
N109        N  0.95403744  0.27829217  0.43363433    -0.27800
N110        N  0.95509440  0.24995217  0.44900125    -0.35600
C111        C  0.95573873  0.22403557  0.42756729     0.00600
C112        C  0.95557065  0.23651356  0.39710775     0.06600
C113        C  0.95415564  0.27104208  0.40193588    -0.06500
H114        H  0.95676239  0.19798526  0.43369568     0.07300
H115        H  0.95287127  0.28957279  0.38377934     0.08500
Cu116      Cu  0.95657245  0.24753321  0.49837721     0.44200
Cu117      Cu  0.95241285  0.32564975  0.45662705     0.42000
Cu118      Cu  0.95583063  0.32627199  0.04337995     0.43900
N119        N  0.95927756  0.25123573  0.04775355    -0.35200
N120        N  0.95852819  0.27998025  0.06437666    -0.29400
C121        C  0.96000075  0.27371378  0.09570619    -0.05500
C122        C  0.96238550  0.23942580  0.09882545     0.06700
C123        C  0.96158123  0.22597453  0.06797934     0.00500
H124        H  0.95953964  0.29269212  0.11478204     0.05900
H125        H  0.96203023  0.19970858  0.06079334     0.07200
N126        N  0.95264948  0.36936877  0.01715910    -0.36600
N127        N  0.95099998  0.36936765  0.48567806    -0.28800
C128        C  0.94909091  0.40132910  0.47652619    -0.04000
C129        C  0.94940756  0.42244949  0.00354840     0.04600
C130        C  0.95199966  0.40117894  0.02877741     0.02700
H131        H  0.94847381  0.40864359  0.45190463     0.07800
H132        H  0.95334739  0.40833640  0.05384456     0.06600
C133        C  0.95869694  0.16206259  0.21537066     0.86000
C134        C  0.98638278  0.13597310  0.22017880    -0.54200
C135        C  0.98121458  0.11679867  0.24650626     0.08900
C136        C  0.94875993  0.12566665  0.26592907     0.19900
C137        C  0.92737628  0.14152049  0.21513247    -0.55000
C138        C  0.92170462  0.12275331  0.24119058     0.09000
C139        C  0.95637858  0.18221768  0.24725324    -0.54500
C140        C  0.95145269  0.16370394  0.27412800     0.09600
H141        H  0.00876606  0.13287122  0.20516202     0.14100
H142        H  0.94501476  0.10980801  0.28689023    -0.00100
H143        H  0.91143030  0.14077060  0.19506102     0.14400
H144        H  0.95911200  0.20920491  0.24825091     0.14200
C145        C  0.93563004  0.18882580  0.36359137    -0.09600
C146        C  0.95591558  0.21688564  0.36628785     0.06600
C147        C  0.97624118  0.22539960  0.33956482    -0.03400
C148        C  0.97507193  0.20681892  0.31074713    -0.07900
C149        C  0.95332301  0.17981643  0.30708023     0.05700
C150        C  0.93396429  0.17042196  0.33449823    -0.02900
Br151      Br  0.90336350  0.13431544  0.33467316    -0.02600
H152        H  0.92015783  0.18171563  0.38409798     0.09600
H153        H  0.99162746  0.21371377  0.29097912     0.07600
Br154      Br  0.00760095  0.26093231  0.34116094    -0.03000
C155        C  0.98661559  0.17849759  0.16146055    -0.09600
C156        C  0.96149079  0.18399149  0.18582346     0.06600
C157        C  0.93713545  0.20892089  0.18089693    -0.03400
C158        C  0.93870743  0.22740924  0.15303691    -0.07900
C159        C  0.96325853  0.22100626  0.12882030     0.05700
C160        C  0.98738996  0.19637488  0.13322821    -0.02900
Br161      Br  0.02257186  0.18650985  0.10170734    -0.02600
H162        H  0.00549012  0.15970974  0.16318187     0.09600
H163        H  0.91975776  0.24605406  0.14967457     0.07600
Br164      Br  0.89950106  0.21806318  0.20998878    -0.03000
C165        C  0.92968193  0.51444822  0.49086836    -0.09600
C166        C  0.95182731  0.53067507  0.01072430     0.06600
C167        C  0.97327590  0.51081185  0.02792150    -0.03400
C168        C  0.97173772  0.47579360  0.02540806    -0.07900
C169        C  0.94965708  0.45966656  0.00544239     0.05700
C170        C  0.92837297  0.47944846  0.48813720    -0.02900
Br171      Br  0.89536425  0.46044690  0.46211477    -0.02600
H172        H  0.91277118  0.52911251  0.47769078     0.09600
H173        H  0.98858938  0.46101676  0.03855830     0.07600
Br174      Br  0.00721718  0.52948102  0.05298728    -0.03000
C175        C  0.95568730  0.75939641  0.36039222    -0.09600
C176        C  0.93124087  0.76658611  0.38451063     0.06600
C177        C  0.90787681  0.79189516  0.37994464    -0.03400
C178        C  0.90945840  0.80986492  0.35171742    -0.07900
C179        C  0.93457478  0.80360473  0.32743088     0.05700
C180        C  0.95802510  0.77783477  0.33250467    -0.02900
Br181      Br  0.99542716  0.76726812  0.30358439    -0.02600
H182        H  0.97406366  0.74020786  0.36390835     0.09600
H183        H  0.89129664  0.82938634  0.34995517     0.07600
Br184      Br  0.87285356  0.80251845  0.41143257    -0.03000
C185        C  0.97057387  0.81859592  0.18319833    -0.09600
C186        C  0.94669712  0.80835453  0.20626898     0.06600
C187        C  0.92459613  0.78288244  0.19752608    -0.03400
C188        C  0.92879743  0.76623780  0.16764165    -0.07900
C189        C  0.95350725  0.77550384  0.14513416     0.05700
C190        C  0.97381915  0.80274822  0.15269035    -0.02900
Br191      Br  0.00751301  0.81813846  0.12304044    -0.02600
H192        H  0.98734986  0.83842775  0.18912790     0.09600
H193        H  0.91207878  0.74633940  0.16162007     0.07600
Br194      Br  0.88630234  0.77138797  0.22373544    -0.03000
C195        C  0.03963965  0.10241501  0.25668239    -0.09600
C196        C  0.00662486  0.09217022  0.25614770     0.06600
C197        C  0.99941834  0.05856504  0.26323086    -0.03400
C198        C  0.02500167  0.03578859  0.26802220    -0.07900
C199        C  0.05786455  0.04596407  0.26763110     0.05700
C200        C  0.06500882  0.07990113  0.26291641    -0.02900
Br201      Br  0.10905770  0.09656507  0.26302216    -0.02600
H202        H  0.04579374  0.12817734  0.25209816     0.09600
H203        H  0.01915252  0.00990223  0.27243000     0.07600
Br204      Br  0.95583476  0.04118330  0.26641157    -0.03000
C205        C  0.02353840  0.89267548  0.24383629    -0.09600
C206        C  0.00206177  0.89056634  0.27119424     0.06600
C207        C  0.00660116  0.91265794  0.29772830    -0.03400
C208        C  0.03242528  0.93534267  0.29673000    -0.07900
C209        C  0.05460652  0.93670495  0.26997181     0.05700
C210        C  0.04986290  0.91532435  0.24315768    -0.02900
Br211      Br  0.08002672  0.91433396  0.20627594    -0.02600
H212        H  0.02050375  0.87593117  0.22335015     0.09600
H213        H  0.03529319  0.95215048  0.31724171     0.07600
Br214      Br  0.97737186  0.91509578  0.33556336    -0.03000
C215        C  0.14715540  0.96664709  0.35214783    -0.09600
C216        C  0.14720118  0.99220886  0.32953967     0.06600
C217        C  0.16795633  0.02004461  0.33497740    -0.03400
C218        C  0.18544441  0.02281708  0.36295523    -0.07900
C219        C  0.18319509  0.99828377  0.38602332     0.05700
C220        C  0.16459355  0.96959945  0.37999662    -0.02900
Br221      Br  0.16382349  0.93252995  0.40808458    -0.02600
H222        H  0.13423018  0.94361643  0.34872484     0.09600
H223        H  0.20053518  0.04458844  0.36696335     0.07600
Br224      Br  0.17417044  0.05536843  0.30533524    -0.03000
C225        C  0.16968055  0.96397280  0.20162394    -0.09600
C226        C  0.14317276  0.98650969  0.20848162     0.06600
C227        C  0.13417162  0.00812217  0.18425106    -0.03400
C228        C  0.15205883  0.00745782  0.15461577    -0.07900
C229        C  0.17932610  0.98591896  0.14836127     0.05700
C230        C  0.18764166  0.96347740  0.17203455    -0.02900
Br231      Br  0.22203742  0.93036754  0.16483527    -0.02600
H232        H  0.17658947  0.94660867  0.21951717     0.09600
H233        H  0.14531031  0.02485800  0.13669089     0.07600
Br234      Br  0.09986589  0.04130420  0.19038542    -0.03000
C235        C  0.87390974  0.95185844  0.24678295    -0.09600
C236        C  0.84339647  0.94069669  0.23678761     0.06600
C237        C  0.83716752  0.90598564  0.23612068    -0.03400
C238        C  0.86122714  0.88352276  0.24572629    -0.07900
C239        C  0.89186600  0.89491194  0.25534819     0.05700
C240        C  0.89826049  0.92941700  0.25515614    -0.02900
Br241      Br  0.93920378  0.94794292  0.26683595    -0.02600
H242        H  0.87902863  0.97834895  0.24806505     0.09600
H243        H  0.85599077  0.85700713  0.24576233     0.07600
Br244      Br  0.79564797  0.88788437  0.22479321    -0.03000
C245        C  0.83803506  0.08152982  0.24938191    -0.09600
C246        C  0.84436304  0.05157718  0.23159364     0.06600
C247        C  0.87574398  0.04605990  0.21625033    -0.03400
C248        C  0.90076271  0.06899454  0.22098803    -0.07900
C249        C  0.89525881  0.09773036  0.24072370     0.05700
C250        C  0.86308318  0.10491280  0.25348555    -0.02900
Br251      Br  0.85125707  0.14786515  0.27264300    -0.02600
H252        H  0.81327889  0.08734961  0.25897078     0.09600
H253        H  0.92457116  0.06487831  0.20839830     0.07600
Br254      Br  0.88533398  0.00919680  0.18659013    -0.03000
C255        C  0.46925540  0.02571130  0.48002669    -0.09600
C256        C  0.48676004  0.00321454  0.99798413     0.06600
C257        C  0.46925259  0.98294003  0.01979132    -0.03400
C258        C  0.43477915  0.98510853  0.02301798    -0.07900
C259        C  0.41709416  0.00735296  0.00485551     0.05700
C260        C  0.43482805  0.02833580  0.48361348    -0.02900
Br261      Br  0.41406009  0.06304615  0.46093202    -0.02600
H262        H  0.48253383  0.04196596  0.46375053     0.09600
H263        H  0.42169713  0.96872098  0.03929276     0.07600
Br264      Br  0.49099645  0.95031416  0.04418230    -0.03000
C265        C  0.73246729  0.96996629  0.29312120    -0.09600
C266        C  0.75725635  0.99412918  0.28970263     0.06600
C267        C  0.76468290  0.01407226  0.31682621    -0.03400
C268        C  0.74694609  0.01008497  0.34611330    -0.07900
C269        C  0.72153921  0.98669212  0.34901967     0.05700
C270        C  0.71469730  0.96616529  0.32229394    -0.02900
Br271      Br  0.68286648  0.93109611  0.32476293    -0.02600
H272        H  0.72697945  0.95366544  0.27293336     0.09600
H273        H  0.75246193  0.02598238  0.36657756     0.07600
Br274      Br  0.79686984  0.04866154  0.31547239    -0.03000
C275        C  0.75607372  0.99659269  0.10950161    -0.09600
C276        C  0.72220457  0.98996438  0.11123540     0.06600
C277        C  0.70716804  0.98181535  0.14106929    -0.03400
C278        C  0.72526407  0.98323310  0.16854647    -0.07900
C279        C  0.75875313  0.99248184  0.16755826     0.05700
C280        C  0.77448862  0.99698020  0.13686284    -0.02900
Br281      Br  0.82120577  0.00203845  0.12951048    -0.02600
H282        H  0.76850807  0.00148700  0.08660566     0.09600
H283        H  0.71281148  0.97530450  0.19033059     0.07600
Br284      Br  0.66312242  0.96495455  0.14595015    -0.03000
N285        N  0.66197676  0.98464366  0.91761690    -0.27800
N286        N  0.69007622  0.98242679  0.93204428    -0.35600
C287        C  0.71534545  0.98244200  0.90991891     0.00600
C288        C  0.70264325  0.98419140  0.88004035     0.06600
C289        C  0.66872322  0.98571771  0.88579029    -0.06500
H290        H  0.74110820  0.98161962  0.91524194     0.07300
H291        H  0.65037308  0.98861731  0.86825516     0.08500
Cu292      Cu  0.69358480  0.98151512  0.98117278     0.44200
Cu293      Cu  0.61589188  0.98921526  0.94203759     0.42000
Cu294      Cu  0.61968483  0.00558982  0.52743386     0.43900
N295        N  0.69143426  0.98743556  0.53053425    -0.35200
N296        N  0.66466475  0.99805825  0.54730165    -0.29400
C297        C  0.67131644  0.00084678  0.57838009    -0.05500
C298        C  0.70369794  0.99069922  0.58156601     0.06700
C299        C  0.71575744  0.98277320  0.55055449     0.00500
H300        H  0.65381868  0.01005013  0.59709463     0.08100
H301        H  0.74038908  0.97414769  0.54303930     0.07200
N302        N  0.57601797  0.00336944  0.50409409    -0.36600
N303        N  0.57432493  0.99727999  0.97298165    -0.28800
C304        C  0.54235305  0.99662899  0.96590776    -0.04000
C305        C  0.52314901  0.00198659  0.49401017     0.04600
C306        C  0.54532596  0.00635856  0.51767676     0.02700
H307        H  0.53370131  0.99199490  0.94216061     0.07800
H308        H  0.53959343  0.01128134  0.54297265     0.06600
C309        C  0.77756509  0.99506195  0.69849608     0.86000
C310        C  0.79943039  0.02611538  0.70117730    -0.54200
C311        C  0.81771902  0.02712537  0.72757394     0.08900
C312        C  0.81138011  0.99787298  0.75006356     0.19900
C313        C  0.80104279  0.96498255  0.70171611    -0.55000
C314        C  0.81843438  0.96620935  0.72883106     0.09000
C315        C  0.75634221  0.99684516  0.73035069    -0.54500
C316        C  0.77384652  0.99777155  0.75732744     0.09600
H317        H  0.80128856  0.04511562  0.68325021     0.14100
H318        H  0.82598837  0.99882271  0.77172668    -0.00100
H319        H  0.80409300  0.94490680  0.68364519     0.14400
H320        H  0.72967664  0.99777122  0.73229091     0.14200
C321        C  0.12555452  0.99015495  0.80028502     0.86000
C322        C  0.10250734  0.02083024  0.79843364    -0.54200
C323        C  0.08392786  0.02052371  0.77217905     0.08900
C324        C  0.08965890  0.98919568  0.74994684     0.19900
C325        C  0.10180733  0.96028173  0.79813746    -0.55000
C326        C  0.08304651  0.95974217  0.77203561     0.09000
C327        C  0.14566676  0.98828774  0.76811240    -0.54500
C328        C  0.12726067  0.98813492  0.74161072     0.09600
H329        H  0.10023663  0.04055223  0.81694137     0.14100
H330        H  0.07408982  0.98865876  0.72894007    -0.00100
H331        H  0.09763294  0.94197332  0.81628144     0.14400
H332        H  0.17244253  0.98755511  0.76650918     0.14200
N333        N  0.23972777  0.99323458  0.58052215    -0.27800
N334        N  0.21177655  0.99494540  0.56578398    -0.35600
C335        C  0.18632609  0.99209965  0.58745213     0.00600
C336        C  0.19867001  0.98790724  0.61729821     0.06600
C337        C  0.23267233  0.98907955  0.61199511    -0.06500
H338        H  0.16064050  0.99302829  0.58187385     0.07300
H339        H  0.25094113  0.98796719  0.62980845     0.08500
Cu340      Cu  0.20891688  0.00074445  0.51678305     0.44200
Cu341      Cu  0.28627076  0.99756536  0.55718308     0.42000
Cu342      Cu  0.28533500  0.00798509  0.97088970     0.43900
N343        N  0.21190341  0.00380634  0.96719902    -0.35200
N344        N  0.24006402  0.00692618  0.95027441    -0.29400
C345        C  0.23408947  0.00670140  0.91890495    -0.05500
C346        C  0.20058850  0.00276665  0.91597377     0.06700
C347        C  0.18726967  0.00119584  0.94705340     0.00500
H348        H  0.25287181  0.00777495  0.89964362     0.08100
H349        H  0.16164652  0.99755555  0.95443560     0.07200
N350        N  0.32793042  0.00681593  0.99602656    -0.36600
N351        N  0.32868196  0.00309371  0.52728052    -0.28800
C352        C  0.36038642  0.00314345  0.53533712    -0.04000
C353        C  0.38048107  0.00753408  0.50789584     0.04600
C354        C  0.35891974  0.00925010  0.98346300     0.02700
H355        H  0.36826001  0.00014189  0.55938633     0.07800
H356        H  0.36522748  0.01118635  0.95814758     0.06600
N357        N  0.95637291  0.71367950  0.57869546    -0.27800
N358        N  0.95479087  0.74170212  0.56285264    -0.35600
C359        C  0.95526656  0.76805637  0.58375577     0.00600
C360        C  0.95715587  0.75614877  0.61429576     0.06600
C361        C  0.95752654  0.72158281  0.61015854    -0.06500
H362        H  0.95253048  0.79389580  0.57736482     0.07300
H363        H  0.95762639  0.70349509  0.62882809     0.08500
Cu364      Cu  0.94814243  0.74304478  0.51404169     0.44200
Cu365      Cu  0.95487939  0.66573555  0.55709292     0.42000
Cu366      Cu  0.94126464  0.66345134  0.97188021     0.43900
N367        N  0.93920168  0.73830094  0.96568052    -0.35200
N368        N  0.93721024  0.70916878  0.95002954    -0.29400
C369        C  0.93316634  0.71465964  0.91887459    -0.05500
C370        C  0.93193506  0.74888252  0.91490592     0.06700
C371        C  0.93604355  0.76306459  0.94502861     0.00500
H372        H  0.93174790  0.69521544  0.90040234     0.08100
H373        H  0.93787437  0.78944453  0.95124582     0.07200
N374        N  0.94740877  0.62088161  0.99827941    -0.36600
N375        N  0.95256019  0.62136863  0.52926635    -0.28800
C376        C  0.95537661  0.58955543  0.53867342    -0.04000
C377        C  0.95218270  0.56796337  0.51227693     0.04600
C378        C  0.94684363  0.58891967  0.98724478     0.02700
H379        H  0.95855373  0.58273772  0.56312126     0.07800
H380        H  0.94286732  0.58143967  0.96266863     0.06600
C381        C  0.93810813  0.82543871  0.79774971     0.86000
C382        C  0.96976743  0.84581937  0.79795058    -0.54200
C383        C  0.97531244  0.86531863  0.77215189     0.08900
C384        C  0.94880981  0.86163143  0.74713142     0.19900
C385        C  0.91049503  0.85158535  0.79245988    -0.55000
C386        C  0.91628930  0.87044582  0.76607396     0.09000
C387        C  0.94074121  0.80511126  0.76598863    -0.54500
C388        C  0.94589524  0.82368338  0.73934847     0.09600
H389        H  0.98615122  0.84547378  0.81762967     0.14100
H390        H  0.95318114  0.87707469  0.72576738    -0.00100
H391        H  0.88769288  0.85468512  0.80686705     0.14400
H392        H  0.93858201  0.77808319  0.76478677     0.14200
N393        N  0.95407997  0.27829713  0.93362264    -0.27800
N394        N  0.95513430  0.24996181  0.94899729    -0.35600
C395        C  0.95577986  0.22403890  0.92757023     0.00600
C396        C  0.95561534  0.23650703  0.89710645     0.06600
C397        C  0.95420140  0.27103719  0.90192541    -0.06500
H398        H  0.95679919  0.19799078  0.93370648     0.07300
H399        H  0.95291659  0.28956210  0.88376356     0.08500
Cu400      Cu  0.95660455  0.24755650  0.99837491     0.44200
Cu401      Cu  0.95244820  0.32566094  0.95660710     0.42000
Cu402      Cu  0.95579217  0.32624433  0.54339505     0.43900
N403        N  0.95924109  0.25120569  0.54775644    -0.35200
N404        N  0.95848807  0.27994796  0.56438341    -0.29400
C405        C  0.95995627  0.27367700  0.59571225    -0.05500
C406        C  0.96234160  0.23938858  0.59882743     0.06700
C407        C  0.96154256  0.22594149  0.56797926     0.00500
H408        H  0.95949185  0.29265277  0.61479054     0.05900
H409        H  0.96199295  0.19967648  0.56078975     0.07200
N410        N  0.95262264  0.36934793  0.51718220    -0.36600
N411        N  0.95102578  0.36938345  0.98565478    -0.28800
C412        C  0.94910747  0.40134341  0.97649974    -0.04000
C413        C  0.94939658  0.42243113  0.50357691     0.04600
C414        C  0.95198189  0.40115684  0.52880394     0.02700
H415        H  0.94848843  0.40865419  0.95187727     0.07800
H416        H  0.95333140  0.40831081  0.55387166     0.06600
C417        C  0.95866070  0.16203628  0.71538003     0.86000
C418        C  0.98635082  0.13595133  0.72018603    -0.54200
C419        C  0.98118787  0.11677912  0.74651505     0.08900
C420        C  0.94873667  0.12564340  0.76594231     0.19900
C421        C  0.92734245  0.14149123  0.71514836    -0.55000
C422        C  0.92167765  0.12272448  0.74120780     0.09000
C423        C  0.95634528  0.18219421  0.74726149    -0.54500
C424        C  0.95142945  0.16368164  0.77413905     0.09600
H425        H  0.00873389  0.13285235  0.70517038     0.14100
H426        H  0.94499825  0.10978332  0.78690317    -0.00100
H427        H  0.91139372  0.14073737  0.69507914     0.14400
H428        H  0.95907844  0.20918146  0.74825655     0.14200
C429        C  0.93566668  0.18880638  0.86360993    -0.09600
C430        C  0.95595081  0.21686916  0.86629164     0.06600
C431        C  0.97626322  0.22537826  0.83955786    -0.03400
C432        C  0.97507513  0.20679634  0.81074239    -0.07900
C433        C  0.95332263  0.17979428  0.80708954     0.05700
C434        C  0.93398511  0.17039840  0.83452062    -0.02900
Br435      Br  0.90339464  0.13428256  0.83472105    -0.02600
H436        H  0.92020724  0.18169703  0.88412551     0.09600
H437        H  0.99161934  0.21368947  0.79096511     0.07600
Br438      Br  0.00763184  0.26090391  0.84113664    -0.03000
C439        C  0.98656824  0.17845709  0.66146099    -0.09600
C440        C  0.96144893  0.18395937  0.68582855     0.06600
C441        C  0.93709341  0.20888745  0.68090145    -0.03400
C442        C  0.93866373  0.22737332  0.65303957    -0.07900
C443        C  0.96321222  0.22096609  0.62882076     0.05700
C444        C  0.98733971  0.19633076  0.63322659    -0.02900
Br445      Br  0.02251474  0.18645267  0.60170145    -0.02600
H446        H  0.00543836  0.15966684  0.66317871     0.09600
H447        H  0.91971548  0.24601924  0.64967789     0.07600
Br448      Br  0.89945953  0.21802957  0.70999395    -0.03000
C449        C  0.92966645  0.51446212  0.99083986    -0.09600
C450        C  0.95185302  0.53065478  0.51074628     0.06600
C451        C  0.97329481  0.51078545  0.52794531    -0.03400
C452        C  0.97174675  0.47576767  0.52543268    -0.07900
C453        C  0.94965683  0.45964747  0.50547244     0.05700
C454        C  0.92837326  0.47946190  0.98810115    -0.02900
Br455      Br  0.89539063  0.46045290  0.96205211    -0.02600
H456        H  0.91275389  0.52912150  0.97765971     0.09600
H457        H  0.98859520  0.46098567  0.53858167     0.07600
Br458      Br  0.00723323  0.52944519  0.55302054    -0.03000
C459        C  0.95567464  0.75944096  0.86040397    -0.09600
C460        C  0.93120283  0.76660704  0.88450359     0.06600
C461        C  0.90782801  0.79190124  0.87992666    -0.03400
C462        C  0.90942034  0.80988033  0.85170499    -0.07900
C463        C  0.93456121  0.80364314  0.82743701     0.05700
C464        C  0.95802364  0.77788919  0.83252310    -0.02900
Br465      Br  0.99545476  0.76735726  0.80362874    -0.02600
H466        H  0.97405981  0.74026488  0.86393068     0.09600
H467        H  0.89124716  0.82938548  0.84993272     0.07600
Br468      Br  0.87277644  0.80249318  0.91139356    -0.03000
C469        C  0.97059278  0.81858310  0.68321275    -0.09600
C470        C  0.94669927  0.80836894  0.70627932     0.06600
C471        C  0.92458143  0.78291213  0.69753835    -0.03400
C472        C  0.92877755  0.76625615  0.66765834    -0.07900
C473        C  0.95350292  0.77549498  0.64515463     0.05700
C474        C  0.97383691  0.80272209  0.65271046    -0.02900
Br475      Br  0.00756099  0.81806679  0.62306843    -0.02600
H476        H  0.98738256  0.83840255  0.68914240     0.09600
H477        H  0.91204456  0.74637048  0.66163758     0.07600
Br478      Br  0.88627581  0.77145488  0.72374837    -0.03000
C479        C  0.03961262  0.10241589  0.75670055    -0.09600
C480        C  0.00660284  0.09215880  0.75615540     0.06600
C481        C  0.99940505  0.05854917  0.76322504    -0.03400
C482        C  0.02499393  0.03577897  0.76801135    -0.07900
C483        C  0.05785261  0.04596636  0.76762929     0.05700
C484        C  0.06498717  0.07990793  0.76293063    -0.02900
Br485      Br  0.10902935  0.09658656  0.76305522    -0.02600
H486        H  0.04575818  0.12818269  0.75212709     0.09600
H487        H  0.01915235  0.00988885  0.77240913     0.07600
Br488      Br  0.95582607  0.04115634  0.76639623    -0.03000
C489        C  0.02354384  0.89268098  0.74384653    -0.09600
C490        C  0.00204361  0.89060687  0.77119133     0.06600
C491        C  0.00656711  0.91272306  0.79771042    -0.03400
C492        C  0.03239835  0.93540002  0.79671080    -0.07900
C493        C  0.05460215  0.93672695  0.76996671     0.05700
C494        C  0.04987589  0.91532027  0.74316795    -0.02900
Br495      Br  0.08007556  0.91428199  0.70631262    -0.02600
H496        H  0.02052291  0.87591493  0.72337346     0.09600
H497        H  0.03525645  0.95222666  0.81721065     0.07600
Br498      Br  0.97731168  0.91519528  0.83552638    -0.03000
C499        C  0.14713602  0.96667052  0.85215441    -0.09600
C500        C  0.14718637  0.99223054  0.82954459     0.06600
C501        C  0.16793408  0.02007096  0.83498840    -0.03400
C502        C  0.18541407  0.02284641  0.86297083    -0.07900
C503        C  0.18316247  0.99831283  0.88603826     0.05700
C504        C  0.16456322  0.96962752  0.88000936    -0.02900
Br505      Br  0.16377795  0.93256444  0.90810495    -0.02600
H506        H  0.13421432  0.94363806  0.84872882     0.09600
H507        H  0.20050175  0.04461938  0.86698231     0.07600
Br508      Br  0.17414968  0.05539709  0.80534909    -0.03000
C509        C  0.16969304  0.96399700  0.70163191    -0.09600
C510        C  0.14317846  0.98652712  0.70848132     0.06600
C511        C  0.13417208  0.00812737  0.68424229    -0.03400
C512        C  0.15206119  0.00745673  0.65460666    -0.07900
C513        C  0.17933595  0.98592468  0.64836061     0.05700
C514        C  0.18765624  0.96349614  0.67204365    -0.02900
Br515      Br  0.22206203  0.93039491  0.66486154    -0.02600
H516        H  0.17660572  0.94664134  0.71953110     0.09600
H517        H  0.14530834  0.02484718  0.63667495     0.07600
Br518      Br  0.09985660  0.04130162  0.69036668    -0.03000
C519        C  0.87386283  0.95185887  0.74677503    -0.09600
C520        C  0.84335498  0.94068518  0.73677733     0.06600
C521        C  0.83714275  0.90597059  0.73609973    -0.03400
C522        C  0.86121181  0.88351739  0.74570337    -0.07900
C523        C  0.89184375  0.89491997  0.75533087     0.05700
C524        C  0.89822288  0.92942777  0.75514436    -0.02900
Br525      Br  0.93915732  0.94797262  0.76682268    -0.02600
H526        H  0.87897112  0.97835150  0.74806106     0.09600
H527        H  0.85598805  0.85699887  0.74573434     0.07600
Br528      Br  0.79563628  0.88784885  0.72475862    -0.03000
C529        C  0.83801092  0.08149824  0.74938808    -0.09600
C530        C  0.84433521  0.05155494  0.73158399     0.06600
C531        C  0.87571762  0.04603888  0.71624341    -0.03400
C532        C  0.90073787  0.06896949  0.72099174    -0.07900
C533        C  0.89523637  0.09769637  0.74074110     0.05700
C534        C  0.86306257  0.10487286  0.75351016    -0.02900
Br535      Br  0.85124507  0.14780781  0.77271066    -0.02600
H536        H  0.81325497  0.08731735  0.75897750     0.09600
H537        H  0.92454572  0.06485767  0.70839961     0.07600
Br538      Br  0.88530929  0.00918133  0.68657696    -0.03000
C539        C  0.46925224  0.02565835  0.98004160    -0.09600
C540        C  0.48676464  0.00325390  0.49795295     0.06600
C541        C  0.46926153  0.98297042  0.51975475    -0.03400
C542        C  0.43478960  0.98514323  0.52299233    -0.07900
C543        C  0.41710278  0.00740094  0.50484618     0.05700
C544        C  0.43482375  0.02827911  0.98361769    -0.02900
Br545      Br  0.41406020  0.06297614  0.96091575    -0.02600
H546        H  0.48253269  0.04190648  0.96376066     0.09600
H547        H  0.42170996  0.96874849  0.53926194     0.07600
Br548      Br  0.49100921  0.95032815  0.54412388    -0.03000
C549        C  0.73242897  0.96997336  0.79311836    -0.09600
C550        C  0.75721845  0.99413508  0.78969516     0.06600
C551        C  0.76465239  0.01407612  0.81681768    -0.03400
C552        C  0.74692062  0.01009033  0.84610718    -0.07900
C553        C  0.72151433  0.98669766  0.84901958     0.05700
C554        C  0.71466701  0.96617034  0.82229542    -0.02900
Br555      Br  0.68284518  0.93109365  0.82477236    -0.02600
H556        H  0.72693716  0.95367251  0.77293184     0.09600
H557        H  0.75244206  0.02598741  0.86656984     0.07600
Br558      Br  0.79684714  0.04865709  0.81546374    -0.03000
C559        C  0.75604107  0.99654878  0.60948995    -0.09600
C560        C  0.72217031  0.98992995  0.61122417     0.06600
C561        C  0.70712669  0.98180415  0.64106133    -0.03400
C562        C  0.72521957  0.98323180  0.66854022    -0.07900
C563        C  0.75871245  0.99246782  0.66755001     0.05700
C564        C  0.77445265  0.99694611  0.63685320    -0.02900
Br565      Br  0.82117204  0.00198653  0.62950197    -0.02600
H566        H  0.76847934  0.00142657  0.58659191     0.09600
H567        H  0.71276100  0.97531966  0.69032731     0.07600
Br568      Br  0.66307401  0.96496172  0.64594494    -0.03000
loop_ 
_geom_bond_atom_site_label_1 
_geom_bond_atom_site_label_2 
_geom_bond_distance 
_geom_bond_site_symmetry_2 
_ccdc_geom_bond_type 
N1            N2   1.323       .  A
N1            C5   1.347       .  A
N1           Cu9   2.087       .  S
N2            C3   1.345       .  A
N2           Cu8   2.069       .  S
C3            C4   1.381       .  A
C3            H6   1.082       .  S
C4            C5   1.386       .  A
C4          C269   1.478       .  S
C5            H7   1.081       .  S
Cu8         N295   2.068       .  S
Cu9          N19   2.087       .  S
Cu10         N12   2.071   1_545  S
Cu10         N18   2.072       .  S
N11          N12   1.320       .  A
N11          C15   1.344       .  A
N11        Cu292   2.068   1_554  S
N12          C13   1.343   1_565  A
C13          C14   1.387   1_545  A
C13          H16   1.081       .  S
C14          C15   1.387       .  A
C14         C276   1.485       .  S
C15          H17   1.082       .  S
N18         N303   1.323   1_544  A
N18          C22   1.344       .  A
N19         N302   1.323   1_565  A
N19          C20   1.348       .  A
C20         C305   1.386   1_565  A
C20          H23   1.082       .  S
C21          C22   1.382   1_556  A
C21         C304   1.386   1_545  A
C21         C256   1.478       .  S
C22          H24   1.082       .  S
C25          C26   1.539   1_565  S
C25          C31   1.547       .  S
C25          C29   1.541       .  S
C25         C279   1.540       .  S
C26          H33   1.085       .  S
C26          C27   1.363       .  D
C27          C28   1.541   1_545  S
C27         C246   1.477       .  S
C28          C32   1.539       .  S
C28          C30   1.537       .  S
C28          H34   1.109       .  S
C29          H35   1.085       .  S
C29          C30   1.368       .  D
C30         C236   1.488       .  S
C31          H36   1.082       .  S
C31          C32   1.365       .  D
C32         C266   1.492       .  S
C37          C38   1.542   1_565  S
C37          C43   1.535       .  S
C37          C41   1.547       .  S
C37         C216   1.545       .  S
C38          H45   1.086       .  S
C38          C39   1.365       .  D
C39          C40   1.543   1_545  S
C39         C199   1.485       .  S
C40          C44   1.548       .  S
C40          C42   1.538       .  S
C40          H46   1.110       .  S
C41          H47   1.080       .  S
C41          C42   1.364       .  D
C42         C209   1.489       .  S
C43          H48   1.086       .  S
C43          C44   1.370       .  D
C44         C226   1.496       .  S
N49          N50   1.323       .  A
N49          C53   1.348       .  A
N49         Cu57   2.092       .  S
N50          C51   1.346       .  A
N50         Cu56   2.079   1_565  S
C51          C52   1.385       .  A
C51          H54   1.082       .  S
C52          C53   1.389       .  A
C52         C229   1.486       .  S
C53          H55   1.081       .  S
Cu56        N343   2.079   1_554  S
Cu57         N67   2.092   1_565  S
Cu58         N60   2.073       .  S
Cu58         N66   2.073       .  S
N59          N60   1.322       .  A
N59          C63   1.345       .  A
N59        Cu340   2.079       .  S
N60          C61   1.347       .  A
C61          C62   1.383       .  A
C61          H64   1.082       .  S
C62          C63   1.385       .  A
C62         C219   1.478   1_545  S
C63          H65   1.082   1_545  S
N66         N351   1.323       .  A
N66          C70   1.344       .  A
N67         N350   1.323   1_554  A
N67          C68   1.349       .  A
C68          C69   1.389       .  A
C68          H71   1.082       .  S
C69         C354   1.384   1_554  A
C69         C259   1.486       .  S
C70         C353   1.384       .  A
C70          H72   1.081       .  S
N73          N74   1.323       .  A
N73          C77   1.346       .  A
N73         Cu81   2.095       .  S
N74          C75   1.347       .  A
N74         Cu80   2.076       .  S
C75          C76   1.384       .  A
C75          H78   1.082       .  S
C76          C77   1.387       .  A
C76         C189   1.482       .  S
C77          H79   1.082       .  S
Cu80        N367   2.076   1_554  S
Cu81         N91   2.095       .  S
Cu82         N84   2.080       .  S
Cu82         N90   2.080       .  S
N83          N84   1.322       .  A
N83          C87   1.345       .  A
N83        Cu364   2.076       .  S
N84          C85   1.347       .  A
C85          C86   1.385       .  A
C85          H88   1.082       .  S
C86          C87   1.383       .  A
C86         C176   1.478       .  S
C87          H89   1.082       .  S
N90         N375   1.322       .  A
N90          C94   1.345       .  A
N91         N374   1.322   1_554  A
N91          C92   1.349       .  A
C92          C93   1.391       .  A
C92          H95   1.081       .  S
C93         C378   1.386   1_554  A
C93         C166   1.491       .  S
C94         C377   1.386       .  A
C94          H96   1.082       .  S
C97          C98   1.530       .  S
C97         C103   1.532       .  S
C97         C101   1.555       .  S
C97         C179   1.542       .  S
C98         H105   1.086       .  S
C98          C99   1.363       .  D
C99         C100   1.546       .  S
C99         C206   1.492   1_655  S
C100        C104   1.548       .  S
C100        C102   1.535       .  S
C100        H106   1.111       .  S
C101        H107   1.081       .  S
C101        C102   1.369       .  D
C102        C239   1.484       .  S
C103        H108   1.085       .  S
C103        C104   1.368       .  D
C104        C186   1.492       .  S
N109        N110   1.323       .  A
N109        C113   1.347       .  A
N109       Cu117   2.094       .  S
N110        C111   1.346       .  A
N110       Cu116   2.075       .  S
C111        C112   1.384       .  A
C111        H114   1.082       .  S
C112        C113   1.389       .  A
C112        C146   1.486       .  S
C113        H115   1.081       .  S
Cu116       N403   2.074       .  S
Cu117       N127   2.094       .  S
Cu118       N120   2.079       .  S
Cu118       N126   2.080       .  S
N119        N120   1.322       .  A
N119        C123   1.345       .  A
N119       Cu400   2.074   1_554  S
N120        C121   1.347       .  A
C121        C122   1.384       .  A
C121        H124   1.082       .  S
C122        C123   1.383       .  A
C122        C159   1.478       .  S
C123        H125   1.082       .  S
N126        N411   1.323   1_554  A
N126        C130   1.346       .  A
N127        N410   1.323       .  A
N127        C128   1.349       .  A
C128        C413   1.389       .  A
C128        H131   1.081       .  S
C129        C130   1.385       .  A
C129        C412   1.389   1_554  A
C129        C169   1.488       .  S
C130        H132   1.082       .  S
C133        C134   1.551       .  S
C133        C139   1.533       .  S
C133        C137   1.522       .  S
C133        C156   1.539       .  S
C134        H141   1.081   1_655  S
C134        C135   1.371       .  D
C135        C136   1.542       .  S
C135        C196   1.499   1_655  S
C136        C140   1.554       .  S
C136        C138   1.552       .  S
C136        H142   1.104       .  S
C137        H143   1.087       .  S
C137        C138   1.355       .  D
C138        C249   1.476       .  S
C139        H144   1.086       .  S
C139        C140   1.373       .  D
C140        C149   1.508       .  S
C145        C146   1.404       .  A
C145        C150   1.406       .  A
C145        H152   1.083       .  S
C146        C147   1.407       .  A
C147        C148   1.398       .  A
C147       Br154   1.920   1_655  S
C148        C149   1.412       .  A
C148        H153   1.082       .  S
C149        C150   1.419       .  A
C150       Br151   1.915       .  S
C155        C156   1.413       .  A
C155        C160   1.400       .  A
C155        H162   1.074   1_655  S
C156        C157   1.424       .  A
C157        C158   1.400       .  A
C157       Br164   1.926       .  S
C158        C159   1.398       .  A
C158        H163   1.084       .  S
C159        C160   1.406       .  A
C160       Br161   1.920   1_655  S
C165        C170   1.402       .  A
C165        C450   1.407       .  A
C165        H172   1.083       .  S
C166        C167   1.413       .  A
C166        C449   1.407   1_554  A
C167        C168   1.403       .  A
C167       Br174   1.919   1_655  S
C168        C169   1.405       .  A
C168        H173   1.083       .  S
C169        C454   1.411   1_554  A
C170        C453   1.411       .  A
C170       Br171   1.919       .  S
C175        C176   1.398       .  A
C175        C180   1.400       .  A
C175        H182   1.084       .  S
C176        C177   1.405       .  A
C177        C178   1.401       .  A
C177       Br184   1.920       .  S
C178        C179   1.415       .  A
C178        H183   1.075       .  S
C179        C180   1.425       .  A
C180       Br181   1.925       .  S
C185        C186   1.405       .  A
C185        C190   1.405       .  A
C185        H192   1.082       .  S
C186        C187   1.417       .  A
C187        C188   1.398       .  A
C187       Br194   1.923       .  S
C188        C189   1.400       .  A
C188        H193   1.084       .  S
C189        C190   1.411       .  A
C190       Br191   1.917   1_655  S
C195        C196   1.408       .  A
C195        C200   1.402       .  A
C195        H202   1.083       .  S
C196        C197   1.416   1_455  A
C197        C198   1.401   1_655  A
C197       Br204   1.908       .  S
C198        C199   1.399       .  A
C198        H203   1.084       .  S
C199        C200   1.409       .  A
C200       Br201   1.916       .  S
C205        C206   1.406       .  A
C205        C210   1.408       .  A
C205        H212   1.083       .  S
C206        C207   1.416       .  A
C207        C208   1.394       .  A
C207       Br214   1.926   1_455  S
C208        C209   1.401       .  A
C208        H213   1.084       .  S
C209        C210   1.410       .  A
C210       Br211   1.917       .  S
C215        C216   1.415       .  A
C215        C220   1.398       .  A
C215        H222   1.074       .  S
C216        C217   1.423   1_565  A
C217        C218   1.403       .  A
C217       Br224   1.920       .  S
C218        C219   1.399   1_545  A
C218        H223   1.084       .  S
C219        C220   1.403       .  A
C220       Br221   1.921       .  S
C225        C226   1.408       .  A
C225        C230   1.402       .  A
C225        H232   1.084       .  S
C226        C227   1.414   1_565  A
C227        C228   1.402       .  A
C227       Br234   1.915       .  S
C228        C229   1.404   1_545  A
C228        H233   1.084       .  S
C229        C230   1.410       .  A
C230       Br231   1.919       .  S
C235        C236   1.402       .  A
C235        C240   1.395       .  A
C235        H242   1.082       .  S
C236        C237   1.413       .  A
C237        C238   1.404       .  A
C237       Br244   1.919       .  S
C238        C239   1.404       .  A
C238        H243   1.084       .  S
C239        C240   1.407       .  A
C240       Br241   1.909       .  S
C245        C246   1.403       .  A
C245        C250   1.403       .  A
C245        H252   1.082       .  S
C246        C247   1.408       .  A
C247        C248   1.394       .  A
C247       Br254   1.917       .  S
C248        C249   1.401       .  A
C248        H253   1.084       .  S
C249        C250   1.408       .  A
C250       Br251   1.916       .  S
C255        C260   1.401       .  A
C255        C540   1.401       .  A
C255        H262   1.084       .  S
C256        C257   1.410   1_546  A
C256        C539   1.401       .  A
C257        C258   1.401       .  A
C257       Br264   1.919       .  S
C258        C259   1.405   1_565  A
C258        H263   1.083       .  S
C259        C544   1.415   1_554  A
C260        C543   1.415       .  A
C260       Br261   1.920       .  S
C265        C266   1.408       .  A
C265        C270   1.397       .  A
C265        H272   1.083       .  S
C266        C267   1.413   1_565  A
C267        C268   1.402       .  A
C267       Br274   1.914       .  S
C268        C269   1.403   1_545  A
C268        H273   1.084       .  S
C269        C270   1.406       .  A
C270       Br271   1.919       .  S
C275        C276   1.402       .  A
C275        C280   1.400       .  A
C275        H282   1.083   1_565  S
C276        C277   1.409       .  A
C277        C278   1.397       .  A
C277       Br284   1.922       .  S
C278        C279   1.412       .  A
C278        H283   1.077       .  S
C279        C280   1.421       .  A
C280       Br281   1.920   1_565  S
N285        N286   1.323       .  A
N285        C289   1.347       .  A
N285       Cu293   2.087       .  S
N286        C287   1.345       .  A
N286       Cu292   2.069       .  S
C287        C288   1.381       .  A
C287        H290   1.082       .  S
C288        C289   1.386       .  A
C288        C553   1.478       .  S
C289        H291   1.081       .  S
Cu293       N303   2.087       .  S
Cu294       N296   2.071   1_545  S
Cu294       N302   2.071       .  S
N295        N296   1.320       .  A
N295        C299   1.344       .  A
N296        C297   1.343   1_565  A
C297        C298   1.387   1_545  A
C297        H300   1.081       .  S
C298        C299   1.387       .  A
C298        C560   1.485       .  S
C299        H301   1.082       .  S
N302        C306   1.344       .  A
N303        C304   1.348       .  A
C304        H307   1.082       .  S
C305        C306   1.382       .  A
C305        C540   1.478       .  S
C306        H308   1.082       .  S
C309        C310   1.539   1_565  S
C309        C315   1.547       .  S
C309        C313   1.541       .  S
C309        C563   1.540       .  S
C310        H317   1.085       .  S
C310        C311   1.363       .  D
C311        C312   1.541   1_545  S
C311        C530   1.477       .  S
C312        C316   1.539       .  S
C312        C314   1.537       .  S
C312        H318   1.109       .  S
C313        H319   1.085       .  S
C313        C314   1.368       .  D
C314        C520   1.488       .  S
C315        H320   1.082       .  S
C315        C316   1.365       .  D
C316        C550   1.492       .  S
C321        C322   1.541   1_565  S
C321        C327   1.535       .  S
C321        C325   1.547       .  S
C321        C500   1.545       .  S
C322        H329   1.086       .  S
C322        C323   1.365       .  D
C323        C324   1.543   1_545  S
C323        C483   1.485       .  S
C324        C328   1.548       .  S
C324        C326   1.538       .  S
C324        H330   1.110       .  S
C325        H331   1.080       .  S
C325        C326   1.364       .  D
C326        C493   1.489       .  S
C327        H332   1.086       .  S
C327        C328   1.370       .  D
C328        C510   1.496       .  S
N333        N334   1.323       .  A
N333        C337   1.348       .  A
N333       Cu341   2.092       .  S
N334        C335   1.346       .  A
N334       Cu340   2.080   1_565  S
C335        C336   1.385       .  A
C335        H338   1.082       .  S
C336        C337   1.389       .  A
C336        C513   1.486       .  S
C337        H339   1.081       .  S
Cu341       N351   2.092   1_565  S
Cu342       N344   2.073       .  S
Cu342       N350   2.073       .  S
N343        N344   1.322       .  A
N343        C347   1.345       .  A
N344        C345   1.347       .  A
C345        C346   1.383       .  A
C345        H348   1.082       .  S
C346        C347   1.385       .  A
C346        C503   1.478   1_545  S
C347        H349   1.082   1_545  S
N350        C354   1.344       .  A
N351        C352   1.349       .  A
C352        C353   1.389       .  A
C352        H355   1.082       .  S
C353        C543   1.486       .  S
C354        H356   1.081       .  S
N357        N358   1.323       .  A
N357        C361   1.346       .  A
N357       Cu365   2.095       .  S
N358        C359   1.347       .  A
N358       Cu364   2.076       .  S
C359        C360   1.384       .  A
C359        H362   1.082       .  S
C360        C361   1.387       .  A
C360        C473   1.482       .  S
C361        H363   1.082       .  S
Cu365       N375   2.095       .  S
Cu366       N368   2.080       .  S
Cu366       N374   2.080       .  S
N367        N368   1.322       .  A
N367        C371   1.345       .  A
N368        C369   1.347       .  A
C369        C370   1.385       .  A
C369        H372   1.082       .  S
C370        C371   1.383       .  A
C370        C460   1.478       .  S
C371        H373   1.082       .  S
N374        C378   1.345       .  A
N375        C376   1.349       .  A
C376        C377   1.391       .  A
C376        H379   1.081       .  S
C377        C450   1.491       .  S
C378        H380   1.082       .  S
C381        C382   1.530       .  S
C381        C387   1.532       .  S
C381        C385   1.555       .  S
C381        C463   1.542       .  S
C382        H389   1.086       .  S
C382        C383   1.363       .  D
C383        C384   1.546       .  S
C383        C490   1.492   1_655  S
C384        C388   1.548       .  S
C384        C386   1.535       .  S
C384        H390   1.111       .  S
C385        H391   1.081       .  S
C385        C386   1.369       .  D
C386        C523   1.484       .  S
C387        H392   1.085       .  S
C387        C388   1.368       .  D
C388        C470   1.492       .  S
N393        N394   1.323       .  A
N393        C397   1.347       .  A
N393       Cu401   2.094       .  S
N394        C395   1.346       .  A
N394       Cu400   2.075       .  S
C395        C396   1.384       .  A
C395        H398   1.082       .  S
C396        C397   1.389       .  A
C396        C430   1.486       .  S
C397        H399   1.081       .  S
Cu401       N411   2.094       .  S
Cu402       N404   2.079       .  S
Cu402       N410   2.080       .  S
N403        N404   1.322       .  A
N403        C407   1.345       .  A
N404        C405   1.347       .  A
C405        C406   1.384       .  A
C405        H408   1.082       .  S
C406        C407   1.383       .  A
C406        C443   1.478       .  S
C407        H409   1.082       .  S
N410        C414   1.346       .  A
N411        C412   1.349       .  A
C412        H415   1.081       .  S
C413        C414   1.385       .  A
C413        C453   1.488       .  S
C414        H416   1.082       .  S
C417        C418   1.551       .  S
C417        C423   1.533       .  S
C417        C421   1.522       .  S
C417        C440   1.539       .  S
C418        H425   1.080   1_655  S
C418        C419   1.371       .  D
C419        C420   1.542       .  S
C419        C480   1.499   1_655  S
C420        C424   1.554       .  S
C420        C422   1.552       .  S
C420        H426   1.104       .  S
C421        H427   1.087       .  S
C421        C422   1.355       .  D
C422        C533   1.476       .  S
C423        H428   1.086       .  S
C423        C424   1.373       .  D
C424        C433   1.508       .  S
C429        C430   1.404       .  A
C429        C434   1.406       .  A
C429        H436   1.083       .  S
C430        C431   1.407       .  A
C431        C432   1.398       .  A
C431       Br438   1.920   1_655  S
C432        C433   1.412       .  A
C432        H437   1.082       .  S
C433        C434   1.419       .  A
C434       Br435   1.915       .  S
C439        C440   1.413       .  A
C439        C444   1.400       .  A
C439        H446   1.074   1_655  S
C440        C441   1.424       .  A
C441        C442   1.400       .  A
C441       Br448   1.926       .  S
C442        C443   1.398       .  A
C442        H447   1.084       .  S
C443        C444   1.406       .  A
C444       Br445   1.920   1_655  S
C449        C454   1.402       .  A
C449        H456   1.083       .  S
C450        C451   1.413       .  A
C451        C452   1.403       .  A
C451       Br458   1.919   1_655  S
C452        C453   1.405       .  A
C452        H457   1.083       .  S
C454       Br455   1.919       .  S
C459        C460   1.398       .  A
C459        C464   1.400       .  A
C459        H466   1.084       .  S
C460        C461   1.405       .  A
C461        C462   1.401       .  A
C461       Br468   1.920       .  S
C462        C463   1.415       .  A
C462        H467   1.075       .  S
C463        C464   1.425       .  A
C464       Br465   1.925       .  S
C469        C470   1.405       .  A
C469        C474   1.405       .  A
C469        H476   1.082       .  S
C470        C471   1.417       .  A
C471        C472   1.398       .  A
C471       Br478   1.923       .  S
C472        C473   1.400       .  A
C472        H477   1.084       .  S
C473        C474   1.411       .  A
C474       Br475   1.917   1_655  S
C479        C480   1.408       .  A
C479        C484   1.402       .  A
C479        H486   1.083       .  S
C480        C481   1.416   1_455  A
C481        C482   1.401   1_655  A
C481       Br488   1.908       .  S
C482        C483   1.399       .  A
C482        H487   1.084       .  S
C483        C484   1.409       .  A
C484       Br485   1.916       .  S
C489        C490   1.406       .  A
C489        C494   1.408       .  A
C489        H496   1.083       .  S
C490        C491   1.416       .  A
C491        C492   1.394       .  A
C491       Br498   1.926   1_455  S
C492        C493   1.401       .  A
C492        H497   1.084       .  S
C493        C494   1.410       .  A
C494       Br495   1.917       .  S
C499        C500   1.415       .  A
C499        C504   1.398       .  A
C499        H506   1.074       .  S
C500        C501   1.423   1_565  A
C501        C502   1.403       .  A
C501       Br508   1.920       .  S
C502        C503   1.399   1_545  A
C502        H507   1.084       .  S
C503        C504   1.403       .  A
C504       Br505   1.921       .  S
C509        C510   1.408       .  A
C509        C514   1.402       .  A
C509        H516   1.084       .  S
C510        C511   1.414   1_565  A
C511        C512   1.402       .  A
C511       Br518   1.915       .  S
C512        C513   1.404   1_545  A
C512        H517   1.084       .  S
C513        C514   1.410       .  A
C514       Br515   1.919       .  S
C519        C520   1.402       .  A
C519        C524   1.395       .  A
C519        H526   1.082       .  S
C520        C521   1.413       .  A
C521        C522   1.404       .  A
C521       Br528   1.919       .  S
C522        C523   1.404       .  A
C522        H527   1.084       .  S
C523        C524   1.407       .  A
C524       Br525   1.909       .  S
C529        C530   1.403       .  A
C529        C534   1.403       .  A
C529        H536   1.082       .  S
C530        C531   1.408       .  A
C531        C532   1.394       .  A
C531       Br538   1.917       .  S
C532        C533   1.401       .  A
C532        H537   1.084       .  S
C533        C534   1.408       .  A
C534       Br535   1.916       .  S
C539        C544   1.401       .  A
C539        H546   1.084       .  S
C540        C541   1.410   1_545  A
C541        C542   1.401       .  A
C541       Br548   1.919       .  S
C542        C543   1.405   1_565  A
C542        H547   1.083       .  S
C544       Br545   1.920       .  S
C549        C550   1.408       .  A
C549        C554   1.398       .  A
C549        H556   1.083       .  S
C550        C551   1.413   1_565  A
C551        C552   1.402       .  A
C551       Br558   1.913       .  S
C552        C553   1.403   1_545  A
C552        H557   1.084       .  S
C553        C554   1.406       .  A
C554       Br555   1.919       .  S
C559        C560   1.402       .  A
C559        C564   1.400       .  A
C559        H566   1.083   1_565  S
C560        C561   1.409       .  A
C561        C562   1.397       .  A
C561       Br568   1.922       .  S
C562        C563   1.412       .  A
C562        H567   1.077       .  S
C563        C564   1.421       .  A
C564       Br565   1.920   1_565  S
