geometry optimzed in LAMMPS
_audit_creation_date              2020-11-30 
_audit_creation_method            'lammps2cif' 
_symmetry_space_group_name_H-M    'P1' 
_symmetry_Int_Tables_number       1 
_symmetry_cell_setting            triclinic 
loop_ 
_symmetry_equiv_pos_as_xyz 
  x,y,z 
_cell_length_a                    41.79061362 
_cell_length_b                    41.93395859646217 
_cell_length_c                    41.65236624562037 
_cell_angle_alpha                 90.27627095975085 
_cell_angle_beta                  90.38329528183533 
_cell_angle_gamma                 89.79044626331326 
loop_ 
_atom_site_label 
_atom_site_type_symbol 
_atom_site_fract_x 
_atom_site_fract_y 
_atom_site_fract_z 
_atom_site_charge 
O1          O  0.87717456  0.47779227  0.71240595    -0.71000
O2          O  0.82272059  0.46773041  0.78552931    -0.71200
O3          O  0.81372339  0.47346873  0.72279941    -0.71100
O4          O  0.88646961  0.47041749  0.77667253    -0.71100
O5          O  0.88632641  0.52174574  0.78146395    -0.71100
O6          O  0.80987683  0.52441904  0.73009400    -0.71100
O7          O  0.82340739  0.51878340  0.79248354    -0.71000
O8          O  0.87280406  0.52915775  0.71785307    -0.71200
V9          V  0.85031889  0.47332927  0.74943391     1.35200
V10         V  0.84839151  0.52257156  0.75526838     1.35200
C11         C  0.88273433  0.50558170  0.70184412     0.78200
C12         C  0.81266352  0.49205974  0.80074350     0.78300
C13         C  0.79816783  0.49889123  0.71848902     0.78100
C14         C  0.89836652  0.49505187  0.78943446     0.78100
O15         O  0.54892505  0.78391309  0.85212402    -0.71000
O16         O  0.55093102  0.72636484  0.78113096    -0.71200
O17         O  0.54622180  0.78881703  0.78778330    -0.71100
O18         O  0.55477545  0.71997870  0.84534625    -0.71100
O19         O  0.50335468  0.71661677  0.84962796    -0.71100
O20         O  0.49469140  0.78323376  0.78734844    -0.71100
O21         O  0.49952358  0.72016433  0.78490850    -0.71000
O22         O  0.49728764  0.78107394  0.85201302    -0.71200
V23         V  0.54921892  0.75461418  0.81691707     1.35200
V24         V  0.49966620  0.75033323  0.81873369     1.35200
C25         C  0.52244030  0.79365138  0.86319318     0.78200
C26         C  0.52518961  0.71470965  0.77008583     0.78300
C27         C  0.51941369  0.79638968  0.77593742     0.78100
C28         C  0.53090770  0.70610752  0.85728726     0.78100
O29         O  0.81590349  0.84659943  0.52234709    -0.71000
O30         O  0.75442626  0.77961615  0.52778702    -0.71200
O31         O  0.81680766  0.78241109  0.51940671    -0.71100
O32         O  0.75201349  0.84384704  0.53229091    -0.71100
O33         O  0.74312837  0.84618459  0.48098370    -0.71100
O34         O  0.81001381  0.78492749  0.46799125    -0.71100
O35         O  0.74739764  0.78207865  0.47623797    -0.71000
O36         O  0.80729613  0.84906526  0.47126010    -0.62000
V37         V  0.78461130  0.81348578  0.52447834     1.35200
V38         V  0.77708750  0.81585683  0.47510858     1.35200
C39         C  0.82301557  0.85860048  0.49542126     0.78200
C40         C  0.74214222  0.76805235  0.50236903     0.78300
C41         C  0.82334286  0.77164913  0.49191836     0.78100
C42         C  0.73540058  0.85441755  0.50927049     0.78100
C43         C  0.60181914  0.42910410  0.93367720     0.46200
H44         H  0.61778537  0.41297479  0.92014534    -0.02800
C45         C  0.56447396  0.46684157  0.96535540     0.46300
H46         H  0.54831853  0.48282205  0.97884552    -0.02800
C47         C  0.60684318  0.46456814  0.92533469    -0.16500
C48         C  0.56612643  0.42221930  0.92725465    -0.16300
C49         C  0.60665439  0.42662503  0.97033509    -0.16600
C50         C  0.58532001  0.48469719  0.94046127    -0.16600
C51         C  0.54610081  0.44083599  0.94589942    -0.16200
C52         C  0.58857252  0.44853393  0.98726738    -0.16500
C53         C  0.56368079  0.53442476  0.53726524     0.46200
H54         H  0.54752124  0.51964725  0.52226803    -0.02800
C55         C  0.60076239  0.56839657  0.57364849     0.46300
H56         H  0.61682238  0.58269599  0.58926053    -0.02800
C57         C  0.58491356  0.51411424  0.56009481    -0.16500
C58         C  0.58744572  0.55528422  0.51774127    -0.16300
C59         C  0.54486205  0.55790985  0.55917646    -0.16600
C60         C  0.60566811  0.53223093  0.57845697    -0.16600
C61         C  0.60596255  0.57485389  0.53759311    -0.16200
C62         C  0.56489431  0.57494816  0.57955755    -0.16500
C63         C  0.46398028  0.92415046  0.57005738     0.46200
H64         H  0.45223811  0.90545284  0.58433542    -0.02800
C65         C  0.49274586  0.96480054  0.53454504     0.46300
H66         H  0.50638907  0.98265565  0.52140831    -0.02800
C67         C  0.45413240  0.95873545  0.57841889    -0.16500
C68         C  0.50098664  0.92165081  0.57206749    -0.16300
C69         C  0.45480365  0.92089330  0.53452700    -0.16600
C70         C  0.47195561  0.98092793  0.56153198    -0.16600
C71         C  0.51598971  0.94208460  0.55173601    -0.16200
C72         C  0.46990231  0.94255038  0.51432954    -0.16500
O73         O  0.56432543  0.20933142  0.64914879    -0.71000
O74         O  0.57191992  0.27383066  0.71423028    -0.71200
O75         O  0.56102468  0.21138725  0.71314927    -0.71100
O76         O  0.57732483  0.27255459  0.64962075    -0.71100
O77         O  0.52683194  0.28390287  0.64585105    -0.71100
O78         O  0.50989183  0.22010390  0.70928225    -0.71100
O79         O  0.52075157  0.28249014  0.71036197    -0.71000
O80         O  0.51378205  0.22010938  0.64493441    -0.71200
V81         V  0.56766892  0.24205335  0.68117069     1.35200
V82         V  0.51880251  0.25151383  0.67732830     1.35200
C83         C  0.53709437  0.20246311  0.63737020     0.78200
C84         C  0.54691768  0.28763830  0.72461396     0.78300
C85         C  0.53318562  0.20613782  0.72307349     0.78100
C86         C  0.55553802  0.28988373  0.63795878     0.78100
C87         C  0.45802448  0.06980951  0.92968274     0.46200
H88         H  0.44197564  0.08446994  0.91459156    -0.02800
C89         C  0.49501663  0.03536899  0.96548889     0.46300
H90         H  0.51081968  0.02063267  0.98078076    -0.02800
C91         C  0.49383307  0.07727984  0.92478657    -0.16500
C92         C  0.45178195  0.07438500  0.96599068    -0.16300
C93         C  0.45435231  0.03378455  0.92286599    -0.16600
C94         C  0.51345808  0.06062425  0.94570321    -0.16600
C95         C  0.46977345  0.05423490  0.98501574    -0.16200
C96         C  0.47570914  0.01553483  0.94050354    -0.16500
O97         O  0.81164346  0.15124078  0.00108594    -0.71000
O98         O  0.74729493  0.21561790  0.99100697    -0.71200
O99         O  0.81038235  0.21515237  0.99951685    -0.71100
O100        O  0.74768544  0.15184350  0.99029021    -0.71100
O101        O  0.73874678  0.15219245  0.04135328    -0.71100
O102        O  0.80425914  0.21596531  0.05124742    -0.71100
O103        O  0.74101602  0.21617803  0.04274829    -0.71000
O104        O  0.80260686  0.15128139  0.05214743    -0.71200
V105        V  0.77912822  0.18323175  0.99650603     1.35200
V106        V  0.77188545  0.18366317  0.04593698     1.35200
C107        C  0.81860882  0.14078666  0.02885401     0.78200
C108        C  0.73424314  0.22763429  0.01570146     0.78300
C109        C  0.81700179  0.22759497  0.02625892     0.78100
C110        C  0.73135805  0.14196755  0.01347253     0.78100
O111        O  0.17243955  0.01408870  0.71731153    -0.71000
O112        O  0.24231537  0.02148042  0.77611599    -0.71200
O113        O  0.23644050  0.01399465  0.71277857    -0.71100
O114        O  0.17832846  0.02276051  0.78151036    -0.71100
O115        O  0.17817055  0.97147822  0.78826333    -0.71100
O116        O  0.23736069  0.96268476  0.71910003    -0.71100
O117        O  0.24207100  0.97011395  0.78248608    -0.71000
O118        O  0.17314444  0.96301152  0.72369544    -0.71200
V119        V  0.20718157  0.01708135  0.74708403     1.35200
V120        V  0.20741950  0.96779877  0.75324234     1.35200
C121        C  0.16159142  0.98696570  0.70939320     0.78200
C122        C  0.25461513  0.99677226  0.78859569     0.78300
C123        C  0.24801951  0.98721353  0.70512432     0.78100
C124        C  0.16907614  0.99895210  0.79733983     0.78100
O125        O  0.00551287  0.78867926  0.14508923    -0.71000
O126        O  0.99968482  0.72482763  0.21014652    -0.71200
O127        O  0.00617786  0.78805616  0.20920479    -0.71100
O128        O  0.99716139  0.72498496  0.14549239    -0.71100
O129        O  0.04808741  0.71605850  0.14570405    -0.71100
O130        O  0.05787940  0.78361736  0.20753342    -0.71100
O131        O  0.05153549  0.72057476  0.21006562    -0.71000
O132        O  0.05650805  0.78041486  0.14302204    -0.71200
V133        V  0.00312791  0.75643068  0.17726338     1.35200
V134        V  0.05255687  0.75029084  0.17629850     1.35200
C135        C  0.03250225  0.79626571  0.13369505     0.78200
C136        C  0.02511097  0.71313656  0.22216921     0.78300
C137        C  0.03314519  0.79613992  0.22000103     0.78100
C138        C  0.02030731  0.70836096  0.13576644     0.78100
O139        O  0.24205391  0.64865974  0.51689240    -0.71000
O140        O  0.29326840  0.71960370  0.54302091    -0.71200
O141        O  0.23446614  0.71236300  0.52111725    -0.71100
O142        O  0.30264474  0.65545493  0.54047937    -0.71100
O143        O  0.31998319  0.65965222  0.49160642    -0.71100
O144        O  0.25224265  0.71794403  0.47267574    -0.71100
O145        O  0.31122814  0.72268223  0.49440974    -0.71000
O146        O  0.25973920  0.65391369  0.46844021    -0.71200
V147        V  0.26853100  0.68367062  0.52948275     1.35200
V148        V  0.28541256  0.68805767  0.48272023     1.35200
C149        C  0.24082802  0.64053340  0.48753499     0.78200
C150        C  0.30882565  0.73474020  0.52202923     0.78300
C151        C  0.23366307  0.72718201  0.49481154     0.78100
C152        C  0.32370029  0.64901578  0.51978372     0.78100
O153        O  0.69013164  0.49792354  0.28480882    -0.71000
O154        O  0.74627627  0.49293649  0.21287703    -0.71200
O155        O  0.75341746  0.49997145  0.27578997    -0.71100
O156        O  0.68246570  0.48951429  0.22031261    -0.71100
O157        O  0.67926819  0.54046674  0.21341742    -0.71100
O158        O  0.75041854  0.55143278  0.27119983    -0.71100
O159        O  0.74350435  0.54441961  0.20806619    -0.71000
O160        O  0.68607100  0.54910964  0.27793823    -0.71200
V161        V  0.71768017  0.49609750  0.24833071     1.35200
V162        V  0.71456450  0.54538403  0.24279167     1.35200
C163        C  0.67964050  0.52474351  0.29431001     0.78200
C164        C  0.75596124  0.51827164  0.19966967     0.78300
C165        C  0.76507511  0.52703791  0.28178754     0.78100
C166        C  0.66945620  0.51271193  0.20601529     0.78100
C167        C  0.96463387  0.56969115  0.42648194     0.46200
H168        H  0.94598576  0.58178605  0.41213946    -0.02800
C169        C  0.00304214  0.53757363  0.46213867     0.46300
H170        H  0.02069378  0.52533163  0.47766130    -0.02800
C171        C  0.96499893  0.53370935  0.41778232    -0.16500
C172        C  0.99927248  0.58203623  0.42294098    -0.16300
C173        C  0.95687625  0.57270469  0.46209854    -0.16600
C174        C  0.98689141  0.51611111  0.43592403    -0.16600
C175        C  0.02000602  0.56405776  0.44250471    -0.16200
C176        C  0.97593467  0.55481044  0.48165659    -0.16500
C177        C  0.09760308  0.93631263  0.42771308     0.46200
H178        H  0.11368085  0.92246553  0.41188152    -0.02800
C179        C  0.06000472  0.96840276  0.46490899     0.46300
H180        H  0.04391518  0.98210858  0.48082522    -0.02800
C181        C  0.06191851  0.92787862  0.42265587    -0.16500
C182        C  0.10462176  0.93062583  0.46365515    -0.16300
C183        C  0.10009582  0.97275507  0.42269590    -0.16600
C184        C  0.04200340  0.94362886  0.44390534    -0.16600
C185        C  0.08591613  0.94931713  0.48348486    -0.16200
C186        C  0.07843406  0.98969597  0.44108440    -0.16500
C187        C  0.96045209  0.43339119  0.06737839     0.46200
H188        H  0.94545024  0.41800119  0.08227614    -0.02800
C189        C  0.99702767  0.46576275  0.03042240     0.46300
H190        H  0.01083782  0.48001477  0.01339603    -0.02800
C191        C  0.95549999  0.46987158  0.07175023    -0.16500
C192        C  0.99629583  0.42702399  0.07352885    -0.16300
C193        C  0.95438756  0.42604274  0.03173438    -0.16600
C194        C  0.97686992  0.48693895  0.05295066    -0.16600
C195        C  0.01678315  0.44372997  0.05346086    -0.16200
C196        C  0.97264893  0.44462088  0.01173340    -0.16500
O197        O  0.37292373  0.03806221  0.28954985    -0.71000
O198        O  0.31412788  0.03976260  0.21894413    -0.71200
O199        O  0.30923095  0.03705906  0.28257112    -0.71100
O200        O  0.37813085  0.04189210  0.22442390    -0.71100
O201        O  0.37856819  0.99066757  0.21921980    -0.71100
O202        O  0.31224886  0.98532342  0.28189147    -0.71100
O203        O  0.31453177  0.98797013  0.21798974    -0.71000
O204        O  0.37635255  0.98663093  0.28416450    -0.71200
V205        V  0.34391100  0.03823197  0.25379414     1.35200
V206        V  0.34562909  0.98864020  0.25090525     1.35200
C207        C  0.38377920  0.01158235  0.29944777     0.78200
C208        C  0.30319847  0.01385136  0.20765719     0.78300
C209        C  0.29861316  0.01056388  0.29177749     0.78100
C210        C  0.38904774  0.01753526  0.21020285     0.78100
C211        C  0.09413189  0.07499958  0.06757219     0.46200
H212        H  0.10978943  0.09119824  0.08133026    -0.02800
C213        C  0.06051798  0.03624429  0.03318939     0.46300
H214        H  0.04561540  0.01868541  0.02042635    -0.02800
C215        C  0.09745067  0.08089183  0.03138921    -0.16500
C216        C  0.10361088  0.03996405  0.07284776    -0.16300
C217        C  0.05782575  0.07745458  0.07493563    -0.16600
C218        C  0.08025613  0.05980979  0.01200743    -0.16600
C219        C  0.08396673  0.01901743  0.05650637    -0.16200
C220        C  0.04005772  0.05782647  0.05470910    -0.16500
O221        O  0.99782166  0.21865496  0.35485973    -0.71000
O222        O  0.99221006  0.27617328  0.28423155    -0.71200
O223        O  0.99041887  0.21312970  0.29057229    -0.71100
O224        O  0.99886965  0.28266464  0.34852481    -0.71100
O225        O  0.05052443  0.27966064  0.34536702    -0.71100
O226        O  0.04190549  0.21289646  0.28383948    -0.71100
O227        O  0.04371693  0.27625839  0.28109707    -0.71000
O228        O  0.04899947  0.21556699  0.34777385    -0.71200
V229        V  0.99579334  0.24768290  0.31965554     1.35200
V230        V  0.04529813  0.24613700  0.31477060     1.35200
C231        C  0.02452067  0.20645250  0.36274559     0.78200
C232        C  0.01712046  0.28536662  0.26980247     0.78300
C233        C  0.01461357  0.20221214  0.27617753     0.78100
C234        C  0.02600823  0.29317026  0.35690472     0.78100
O235        O  0.24431362  0.34888051  0.96897461    -0.71000
O236        O  0.31102647  0.28652504  0.96856083    -0.71200
O237        O  0.24730959  0.28531777  0.97232495    -0.71100
O238        O  0.30941486  0.35059239  0.96465836    -0.71100
O239        O  0.31303336  0.35421438  0.01633676    -0.71100
O240        O  0.25110858  0.28817356  0.02399843    -0.71100
O241        O  0.31444890  0.29002986  0.02052763    -0.71000
O242        O  0.24843508  0.35197158  0.02087956    -0.71200
V243        V  0.27818371  0.31816072  0.96958832     1.35200
V244        V  0.28172116  0.32129453  0.01939967     1.35200
C245        C  0.23396631  0.35976175  0.99537811     0.78200
C246        C  0.32278905  0.27655633  0.99476294     0.78300
C247        C  0.23909405  0.27481423  0.99939549     0.78100
C248        C  0.32273204  0.36304924  0.98902076     0.78100
C249        C  0.12556924  0.16629641  0.01665255    -0.04700
C250        C  0.15865696  0.16175571  0.01260768     0.09400
C251        C  0.17126892  0.13050960  0.01175725    -0.02100
C252        C  0.15087261  0.10395829  0.01550123    -0.00400
C253        C  0.11785673  0.10843985  0.02143134    -0.04000
C254        C  0.10538098  0.14000081  0.02190110     0.03100
C255        C  0.17991134  0.19025879  0.00921096     0.09900
C256        C  0.20539293  0.12577105  0.00765551     0.35800
C257        C  0.07210362  0.14650356  0.02891235     0.39200
C258        C  0.18618106  0.21008299  0.03594129    -0.04300
C259        C  0.20345486  0.23866359  0.03231210     0.02800
C260        C  0.21701127  0.24667184  0.00221301    -0.03900
C261        C  0.21040914  0.22650963  0.97530178    -0.00200
C262        C  0.19144605  0.19893282  0.97882182    -0.02700
C263        C  0.17476936  0.20109790  0.06744221     0.36500
C264        C  0.22283886  0.23358873  0.94368777     0.40100
C265        C  0.20585294  0.26023126  0.05958729     0.39300
C266        C  0.18321992  0.17958899  0.95097125     0.36200
C267        C  0.11229620  0.19837058  0.01574778     0.36900
C268        C  0.16393907  0.07211935  0.01233606     0.40100
N269        N  0.20742576  0.27748134  0.08131468    -0.37900
N270        N  0.16601396  0.19426485  0.09277731    -0.39500
N271        N  0.23254458  0.23902891  0.91833987    -0.37300
N272        N  0.17649795  0.16416257  0.92883915    -0.39700
N273        N  0.23263970  0.12204045  0.00445204    -0.39400
N274        N  0.17509917  0.04710035  0.00874705    -0.37100
N275        N  0.04645469  0.15430703  0.03583176    -0.38100
N276        N  0.10178891  0.22393090  0.01502696    -0.39800
C277        C  0.01087386  0.09718197  0.15263938    -0.04700
C278        C  0.02162127  0.12792089  0.16018161     0.09400
C279        C  0.04282875  0.14326532  0.13945933    -0.02100
C280        C  0.05555527  0.12698300  0.11263480    -0.00400
C281        C  0.04433351  0.09591995  0.10367384    -0.04000
C282        C  0.02244824  0.08100157  0.12513716     0.03100
C283        C  0.01472606  0.14263947  0.19223054     0.09900
C284        C  0.05319852  0.17555114  0.14709191     0.35800
C285        C  0.01550775  0.04733190  0.12316155     0.39200
C286        C  0.03382101  0.13437301  0.21909371    -0.04300
C287        C  0.03212499  0.15254481  0.24756847     0.02800
C288        C  0.01126819  0.17899557  0.24940480    -0.03900
C289        C  0.98993876  0.18532007  0.22360939    -0.00200
C290        C  0.99189168  0.16728818  0.19498707    -0.02700
C291        C  0.05610551  0.10786093  0.21716689     0.36500
C292        C  0.96732556  0.21157646  0.22559185     0.40100
C293        C  0.05205762  0.14421351  0.27497118     0.39300
C294        C  0.97153860  0.17499015  0.16774077     0.36200
C295        C  0.98884499  0.08163933  0.17434999     0.36900
C296        C  0.08396554  0.14092149  0.09920088     0.40100
N297        N  0.06788539  0.13765520  0.29688687    -0.37900
N298        N  0.07383632  0.08662717  0.21621781    -0.39500
N299        N  0.94915466  0.23241155  0.22714054    -0.37300
N300        N  0.95542386  0.18113161  0.14591128    -0.39700
N301        N  0.06128192  0.20127960  0.15309448    -0.39400
N302        N  0.10749298  0.15301508  0.09143583    -0.37100
N303        N  0.00926633  0.02053785  0.12464023    -0.38100
N304        N  0.97133637  0.06933686  0.19173190    -0.39800
C305        C  0.22315027  0.99423617  0.16896270    -0.04700
C306        C  0.22280044  0.01533293  0.14276839     0.09400
C307        C  0.24972619  0.03445949  0.13647322    -0.02100
C308        C  0.27658509  0.03337043  0.15711017    -0.00400
C309        C  0.27638041  0.01337046  0.18427232    -0.04000
C310        C  0.24975661  0.99331771  0.18980198     0.03100
C311        C  0.19230226  0.02070439  0.12483351     0.09900
C312        C  0.24919906  0.05607456  0.10940300     0.35800
C313        C  0.24866784  0.97314405  0.21802913     0.39200
C314        C  0.17027066  0.04298231  0.13685110    -0.04300
C315        C  0.14073348  0.04778710  0.12119832     0.02800
C316        C  0.13325915  0.03128967  0.09210605    -0.03900
C317        C  0.15607747  0.00896987  0.08009524    -0.00200
C318        C  0.18503909  0.00328664  0.09686813    -0.02700
C319        C  0.17825705  0.06114333  0.16563887     0.36500
C320        C  0.15153620  0.99305787  0.04950930     0.40100
C321        C  0.11810227  0.06896842  0.13662004     0.39300
C322        C  0.20781059  0.97983499  0.08512309     0.36200
C323        C  0.19535734  0.97459643  0.17525849     0.36900
C324        C  0.30448577  0.05261205  0.15029496     0.40100
N325        N  0.10111709  0.08585829  0.15044383    -0.37900
N326        N  0.18481225  0.07561830  0.18846114    -0.39500
N327        N  0.14958697  0.98009149  0.02500493    -0.37300
N328        N  0.22594372  0.96108320  0.07582268    -0.39700
N329        N  0.24865924  0.07336314  0.08783197    -0.39400
N330        N  0.32685193  0.06783942  0.14494294    -0.37100
N331        N  0.24763938  0.95710066  0.24053299    -0.38100
N332        N  0.17312021  0.95905338  0.18022604    -0.39800
C333        C  0.10117294  0.44997753  0.01816115    -0.04700
C334        C  0.11293878  0.41939280  0.02589719     0.09400
C335        C  0.09737971  0.40195694  0.04997084    -0.02100
C336        C  0.07062997  0.41508677  0.06566634    -0.00400
C337        C  0.05357220  0.44077352  0.05156423    -0.04000
C338        C  0.07211165  0.46109804  0.03165969     0.03100
C339        C  0.14449708  0.40769525  0.01327523     0.09900
C340        C  0.11095331  0.37213040  0.06133388     0.35800
C341        C  0.06451732  0.49467690  0.02870004     0.39200
C342        C  0.17333965  0.42002126  0.02608574    -0.04300
C343        C  0.20297586  0.40608604  0.01783874     0.02800
C344        C  0.20406746  0.37908793  0.99743885    -0.03900
C345        C  0.17528274  0.36755420  0.98355221    -0.00200
C346        C  0.14566935  0.38202738  0.99124963    -0.02700
C347        C  0.17238511  0.44589388  0.04930885     0.36500
C348        C  0.17567692  0.33910940  0.96356731     0.40100
C349        C  0.23242497  0.41911407  0.03098210     0.39300
C350        C  0.11613471  0.36948379  0.97784176     0.36200
C351        C  0.11869699  0.46976934  0.99592376     0.36900
C352        C  0.07229598  0.41321036  0.10025774     0.40100
N353        N  0.25596459  0.42945500  0.04139270    -0.37900
N354        N  0.17153656  0.46647507  0.06789533    -0.39500
N355        N  0.17592103  0.31628520  0.94782923    -0.37300
N356        N  0.09253519  0.35942755  0.96728020    -0.39700
N357        N  0.12171164  0.34828316  0.07028719    -0.39400
N358        N  0.07568954  0.41189847  0.12782158    -0.37100
N359        N  0.05924396  0.52167195  0.02620485    -0.38100
N360        N  0.13273330  0.48553008  0.97820123    -0.39800
C361        C  0.00748705  0.39490293  0.15863024    -0.04700
C362        C  0.01046301  0.36198330  0.15281202     0.09400
C363        C  0.01201913  0.35061194  0.12094324    -0.02100
C364        C  0.00915668  0.37206172  0.09493838    -0.00400
C365        C  0.00471266  0.40509585  0.10062926    -0.04000
C366        C  0.00435444  0.41636116  0.13285854     0.03100
C367        C  0.01191716  0.33974800  0.18083546     0.09900
C368        C  0.01643156  0.31679499  0.11501460     0.35800
C369        C  0.99891598  0.44961623  0.14062837     0.39200
C370        C  0.98384254  0.33265126  0.19786745    -0.04300
C371        C  0.98555518  0.31661732  0.22758198     0.02800
C372        C  0.01540228  0.30503596  0.23952984    -0.03900
C373        C  0.04347103  0.31110689  0.22114185    -0.00200
C374        C  0.04166324  0.32912270  0.19261707    -0.02700
C375        C  0.95298911  0.34206155  0.18471332     0.36500
C376        C  0.07461095  0.29898187  0.23088252     0.40100
C377        C  0.95638019  0.31331689  0.24595036     0.39300
C378        C  0.07063983  0.33738077  0.17553270     0.36200
C379        C  0.00702120  0.40667446  0.19151979     0.36900
C380        C  0.01180564  0.36009375  0.06242779     0.40100
N381        N  0.93302759  0.31107934  0.26054580    -0.37900
N382        N  0.92828971  0.34915320  0.17418880    -0.39500
N383        N  0.09955464  0.28932606  0.23830719    -0.37300
N384        N  0.09372332  0.34406685  0.16196705    -0.39700
N385        N  0.02011254  0.28980951  0.11033067    -0.39400
N386        N  0.01481815  0.34987926  0.03678983    -0.37100
N387        N  0.99309552  0.47518102  0.14948585    -0.38100
N388        N  0.00656984  0.41597259  0.21771801    -0.39800
C389        C  0.05047332  0.06670815  0.39971797    -0.04700
C390        C  0.04770232  0.08796099  0.42581246     0.09400
C391        C  0.05470443  0.07722944  0.45705252    -0.02100
C392        C  0.06540996  0.04556822  0.46211478    -0.00400
C393        C  0.06916005  0.02414596  0.43577511    -0.04000
C394        C  0.06075653  0.03504840  0.40456537     0.03100
C395        C  0.03920047  0.12208274  0.41929179     0.09900
C396        C  0.05055224  0.09883285  0.48401192     0.35800
C397        C  0.06036534  0.01379642  0.37710072     0.39200
C398        C  0.00781416  0.13038535  0.40980835    -0.04300
C399        C  0.00198694  0.15930216  0.39342173     0.02800
C400        C  0.02760453  0.18055793  0.38733567    -0.03900
C401        C  0.05783133  0.17427405  0.40186396    -0.00200
C402        C  0.06374426  0.14483604  0.41703487    -0.02700
C403        C  0.98190712  0.10820329  0.41539784     0.36500
C404        C  0.08329812  0.19767749  0.40073824     0.40100
C405        C  0.97005655  0.16577103  0.38120440     0.39300
C406        C  0.09566506  0.13706874  0.42858290     0.36200
C407        C  0.04217173  0.07746016  0.36757315     0.36900
C408        C  0.07305919  0.03569316  0.49457472     0.40100
N409        N  0.94452248  0.17077700  0.37149119    -0.37900
N410        N  0.96122021  0.09056833  0.42000252    -0.39500
N411        N  0.10366221  0.21628228  0.39990735    -0.37300
N412        N  0.12105959  0.13072109  0.43784315    -0.39700
N413        N  0.04715717  0.11607361  0.50550842    -0.39400
N414        N  0.07907108  0.02852662  0.52072005    -0.37100
N415        N  0.05919963  0.99845825  0.35398359    -0.38100
N416        N  0.03523826  0.08596505  0.34206229    -0.39800
C417        C  0.16213833  0.97957089  0.35573270    -0.04700
C418        C  0.18390241  0.00166618  0.36879784     0.09400
C419        C  0.17596968  0.01809569  0.39719953    -0.02100
C420        C  0.14773222  0.01034665  0.41413729    -0.00400
C421        C  0.12630130  0.98672992  0.40199841    -0.04000
C422        C  0.13337914  0.97268092  0.37173423     0.03100
C423        C  0.21483574  0.00757265  0.35179146     0.09900
C424        C  0.19739056  0.04256868  0.40930881     0.35800
C425        C  0.11129912  0.95109438  0.35622284     0.39200
C426        C  0.21479356  0.02602322  0.32357290    -0.04300
C427        C  0.24222020  0.02705495  0.30408869     0.02800
C428        C  0.27004519  0.00964555  0.31273857    -0.03900
C429        C  0.27055976  0.99229035  0.34165086    -0.00200
C430        C  0.24322007  0.99166761  0.36139095    -0.02700
C431        C  0.18618013  0.04354118  0.31437621     0.36500
C432        C  0.29940205  0.97541526  0.35131376     0.40100
C433        C  0.24115518  0.04485670  0.27429154     0.39300
C434        C  0.24473802  0.97494862  0.39171334     0.36200
C435        C  0.16982499  0.96322829  0.32588630     0.36900
C436        C  0.14284200  0.02530286  0.44508680     0.40100
N437        N  0.24025369  0.05902216  0.25052196    -0.37900
N438        N  0.16332793  0.05750598  0.30715023    -0.39500
N439        N  0.32241599  0.96191674  0.35890521    -0.37300
N440        N  0.24723185  0.96188101  0.41601056    -0.39700
N441        N  0.21442174  0.06218306  0.41887505    -0.39400
N442        N  0.14046183  0.03796914  0.46969414    -0.37100
N443        N  0.09435139  0.93418445  0.34236579    -0.38100
N444        N  0.17603109  0.95027125  0.30212360    -0.39800
C445        C  0.00578018  0.43677726  0.39114251    -0.04700
C446        C  0.01557056  0.41651042  0.41602590     0.09400
C447        C  0.01806714  0.42875386  0.44733523    -0.02100
C448        C  0.00814406  0.46044738  0.45431287    -0.00400
C449        C  0.99803014  0.48168531  0.42914028    -0.04000
C450        C  0.00002204  0.46942343  0.39709735     0.03100
C451        C  0.02338446  0.38233672  0.40837583     0.09900
C452        C  0.03131094  0.40855427  0.47239212     0.35800
C453        C  0.99956463  0.48938858  0.36903003     0.39200
C454        C  0.05017880  0.37493966  0.38921290    -0.04300
C455        C  0.05251264  0.34492020  0.37387059     0.02800
C456        C  0.02839678  0.32170238  0.37846603    -0.03900
C457        C  0.00433717  0.32767848  0.40159023    -0.00200
C458        C  0.00148451  0.35807921  0.41597999    -0.02700
C459        C  0.07439150  0.39903305  0.38388843     0.36500
C460        C  0.98231809  0.30262129  0.41054812     0.40100
C461        C  0.07860916  0.33908359  0.35178628     0.39300
C462        C  0.97507559  0.36489635  0.43739492     0.36200
C463        C  0.00189025  0.42386505  0.35883011     0.36900
C464        C  0.00918171  0.46988591  0.48777034     0.40100
N465        N  0.09946596  0.33453941  0.33417936    -0.37900
N466        N  0.09365284  0.41829640  0.37966788    -0.39500
N467        N  0.96487819  0.28257554  0.41782388    -0.37300
N468        N  0.95412286  0.37037518  0.45461410    -0.39700
N469        N  0.04210693  0.39250030  0.49225402    -0.39400
N470        N  0.01117779  0.47619231  0.51480421    -0.37100
N471        N  0.00050880  0.50180541  0.34434233    -0.38100
N472        N  0.99874996  0.41350847  0.33320048    -0.39800
C473        C  0.82962902  0.54924974  0.34339035    -0.04700
C474        C  0.85360688  0.52659951  0.33598493     0.09400
C475        C  0.84947054  0.50604413  0.30947025    -0.02100
C476        C  0.82099126  0.50711629  0.29125711    -0.00400
C477        C  0.79620330  0.52889005  0.29937155    -0.04000
C478        C  0.80112805  0.55068712  0.32489638     0.03100
C479        C  0.88408428  0.52518775  0.35506086     0.09900
C480        C  0.87476244  0.48381460  0.30087227     0.35800
C481        C  0.77663513  0.57396644  0.33271236     0.39200
C482        C  0.88912718  0.50114797  0.37817160    -0.04300
C483        C  0.91842209  0.49942898  0.39543706     0.02800
C484        C  0.94198512  0.52324587  0.39126892    -0.03900
C485        C  0.93854685  0.54345530  0.36424688    -0.00200
C486        C  0.90951043  0.54541096  0.34713415    -0.02700
C487        C  0.86425160  0.47781633  0.38373284     0.36500
C488        C  0.96623934  0.55955623  0.35186881     0.40100
C489        C  0.92583927  0.47019850  0.41206288     0.39300
C490        C  0.90587791  0.56817116  0.32120190     0.36200
C491        C  0.83418382  0.57064016  0.37044952     0.36900
C492        C  0.81774451  0.48623466  0.26351075     0.40100
N493        N  0.93098436  0.44542169  0.42315182    -0.37900
N494        N  0.84440445  0.45917744  0.38804105    -0.39500
N495        N  0.98908723  0.57017815  0.34079831    -0.37300
N496        N  0.90297237  0.58640346  0.30060882    -0.39700
N497        N  0.89498468  0.46613549  0.29412439    -0.39400
N498        N  0.81522318  0.46953331  0.24144548    -0.37100
N499        N  0.75710909  0.59262712  0.33883560    -0.38100
N500        N  0.83792249  0.58752831  0.39218688    -0.39800
C501        C  0.87929295  0.51882999  0.09371261    -0.04700
C502        C  0.87001576  0.50501701  0.12275791     0.09400
C503        C  0.88960070  0.48177764  0.13686452    -0.02100
C504        C  0.91691396  0.47005318  0.12076951    -0.00400
C505        C  0.92756329  0.48395844  0.09120650    -0.04000
C506        C  0.90740476  0.50829167  0.07778410     0.03100
C507        C  0.83859977  0.51298795  0.13820260     0.09900
C508        C  0.88025517  0.46834108  0.16759270     0.35800
C509        C  0.91110247  0.51892182  0.04510089     0.39200
C510        C  0.81090200  0.49502177  0.13066017    -0.04300
C511        C  0.78362653  0.49691936  0.15044727     0.02800
C512        C  0.78326055  0.51790711  0.17697260    -0.03900
C513        C  0.81017895  0.53756124  0.18311023    -0.00200
C514        C  0.83783774  0.53473668  0.16406478    -0.02700
C515        C  0.81036852  0.47411718  0.10288244     0.36500
C516        C  0.81044824  0.55924598  0.21037192     0.40100
C517        C  0.75609574  0.47689698  0.14382394     0.39300
C518        C  0.86626160  0.55298265  0.17205237     0.36200
C519        C  0.85878335  0.54301858  0.07944802     0.36900
C520        C  0.92915273  0.44032273  0.13318763     0.40100
N521        N  0.73422104  0.46073089  0.13882432    -0.37900
N522        N  0.80867333  0.45752240  0.08066963    -0.39500
N523        N  0.81086228  0.57661870  0.23204294    -0.37300
N524        N  0.88904843  0.56732429  0.17847183    -0.39700
N525        N  0.87288578  0.45767011  0.19200882    -0.39400
N526        N  0.93560244  0.41581917  0.14416981    -0.37100
N527        N  0.91094072  0.52815207  0.01898670    -0.38100
N528        N  0.84238731  0.56224809  0.06807988    -0.39800
C529        C  0.17457775  0.57817730  0.48438917    -0.04700
C530        C  0.15695071  0.58906969  0.45742083     0.09400
C531        C  0.17085831  0.61190885  0.43710241    -0.02100
C532        C  0.20097271  0.62496758  0.44471406    -0.00400
C533        C  0.21552269  0.61862328  0.47493486    -0.04000
C534        C  0.20278365  0.59408442  0.49412752     0.03100
C535        C  0.12231308  0.58016836  0.45350084     0.09900
C536        C  0.15336807  0.62417769  0.40964739     0.35800
C537        C  0.21808735  0.58557183  0.52423463     0.39200
C538        C  0.10067012  0.58826571  0.47805315    -0.04300
C539        C  0.06863848  0.57859338  0.47595170     0.02800
C540        C  0.05565310  0.56782373  0.44639721    -0.03900
C541        C  0.07733758  0.55890049  0.42186219    -0.00200
C542        C  0.11068678  0.56391855  0.42598591    -0.02700
C543        C  0.11099873  0.60730463  0.50545468     0.36500
C544        C  0.06571642  0.54493907  0.39224494     0.40100
C545        C  0.05199385  0.57431409  0.50580039     0.39300
C546        C  0.13294166  0.55261164  0.40189594     0.36200
C547        C  0.16256460  0.55178623  0.50316455     0.36900
C548        C  0.21595347  0.64597307  0.42167673     0.40100
N549        N  0.04206053  0.56872090  0.53096507    -0.37900
N550        N  0.11916918  0.62266554  0.52714347    -0.39500
N551        N  0.05752147  0.53430646  0.36791380    -0.37300
N552        N  0.15072904  0.54361442  0.38266932    -0.39700
N553        N  0.14000353  0.63467292  0.38770294    -0.39400
N554        N  0.22811826  0.66211661  0.40292835    -0.37100
N555        N  0.22990775  0.57885446  0.54848974    -0.38100
N556        N  0.15286309  0.53078741  0.51812300    -0.39800
C557        C  0.18317672  0.79509457  0.45969535    -0.04700
C558        C  0.18262141  0.81691024  0.48570312     0.09400
C559        C  0.19878299  0.80920144  0.51440912    -0.02100
C560        C  0.21449494  0.77956081  0.51759888    -0.00400
C561        C  0.21447803  0.75717137  0.49183192    -0.04000
C562        C  0.19888599  0.76533805  0.46279608     0.03100
C563        C  0.16444979  0.84777269  0.48325831     0.09900
C564        C  0.19990256  0.83231449  0.54047379     0.35800
C565        C  0.19826644  0.74299243  0.43616093     0.39200
C566        C  0.13513854  0.85166175  0.49938099    -0.04300
C567        C  0.11664991  0.87969116  0.49521490     0.02800
C568        C  0.12717283  0.90426662  0.47437229    -0.03900
C569        C  0.15774946  0.90076999  0.45998765    -0.00200
C570        C  0.17638352  0.87302613  0.46485045    -0.02700
C571        C  0.12329157  0.82597877  0.51926667     0.36500
C572        C  0.17045830  0.92532151  0.43963824     0.40100
C573        C  0.08564307  0.88107504  0.51040907     0.39300
C574        C  0.20796403  0.87029332  0.45072773     0.36200
C575        C  0.16810813  0.80332727  0.42937690     0.36900
C576        C  0.23179254  0.77303715  0.54720599     0.40100
N577        N  0.06117429  0.88055201  0.52321342    -0.37900
N578        N  0.11396063  0.80552844  0.53519615    -0.39500
N579        N  0.18155355  0.94433841  0.42321090    -0.37300
N580        N  0.23318181  0.86816927  0.43958379    -0.39700
N581        N  0.20076600  0.85080611  0.56117486    -0.39400
N582        N  0.24541280  0.76815636  0.57097436    -0.37100
N583        N  0.19735022  0.72554470  0.41458613    -0.38100
N584        N  0.15674657  0.80943216  0.40474119    -0.39800
C585        C  0.02102499  0.87982738  0.09928523    -0.04700
C586        C  0.05227646  0.88654073  0.08867583     0.09400
C587        C  0.07499571  0.86168765  0.08711537    -0.02100
C588        C  0.06733780  0.83095220  0.09839336    -0.00400
C589        C  0.03706507  0.82498141  0.11261789    -0.04000
C590        C  0.01320766  0.84910262  0.11056985     0.03100
C591        C  0.06172630  0.92005240  0.08040826     0.09900
C592        C  0.10684157  0.86816085  0.07511536     0.35800
C593        C  0.98055406  0.84285613  0.12025313     0.39200
C594        C  0.06793293  0.94227680  0.10504135    -0.04300
C595        C  0.07576919  0.97418583  0.09765599     0.02800
C596        C  0.07938113  0.98408409  0.06514055    -0.03900
C597        C  0.07483812  0.96074753  0.04064611    -0.00200
C598        C  0.06515697  0.92938772  0.04823064    -0.02700
C599        C  0.06575163  0.93221823  0.13831139     0.36500
C600        C  0.08163358  0.96792006  0.00747653     0.40100
C601        C  0.07803443  0.99636693  0.12425230     0.39300
C602        C  0.05822186  0.90661009  0.02280932     0.36200
C603        C  0.99707446  0.90492663  0.09987832     0.36900
C604        C  0.09087517  0.80562961  0.09502082     0.40100
N605        N  0.07905314  0.01239252  0.14691136    -0.37900
N606        N  0.06403418  0.92418220  0.16478714    -0.39500
N607        N  0.08783033  0.97203703  0.98081993    -0.37300
N608        N  0.05253424  0.88838490  0.00263638    -0.39700
N609        N  0.13220891  0.87339186  0.06553520    -0.39400
N610        N  0.10968313  0.78549735  0.09217750    -0.37100
N611        N  0.95437447  0.83794760  0.12760341    -0.38100
N612        N  0.97763112  0.92461014  0.10087716    -0.39800
C613        C  0.97786510  0.63569965  0.09883463    -0.04700
C614        C  0.00334295  0.61981250  0.08378862     0.09400
C615        C  0.03350080  0.63466350  0.08204968    -0.02100
C616        C  0.03888763  0.66432314  0.09751592    -0.00400
C617        C  0.01398772  0.67943750  0.11501880    -0.04000
C618        C  0.98286701  0.66535241  0.11414408     0.03100
C619        C  0.99926974  0.58574148  0.07373464     0.09900
C620        C  0.05917824  0.61887416  0.06485350     0.35800
C621        C  0.95569586  0.68020806  0.12990297     0.39200
C622        C  0.98816127  0.57737396  0.04276908    -0.04300
C623        C  0.98259681  0.54493369  0.03492586     0.02800
C624        C  0.98638795  0.52112818  0.05868139    -0.03900
C625        C  0.00418878  0.52934725  0.08639497    -0.00200
C626        C  0.00771180  0.56145067  0.09539911    -0.02700
C627        C  0.98275835  0.60206263  0.01912478     0.36500
C628        C  0.02694885  0.50685659  0.09953023     0.40100
C629        C  0.97629278  0.53595800  0.00189493     0.39300
C630        C  0.02093125  0.56939650  0.12672677     0.36200
C631        C  0.94660338  0.62064730  0.09967505     0.36900
C632        C  0.07008483  0.67909830  0.09507515     0.40100
N633        N  0.97171014  0.52894362  0.97537467    -0.37900
N634        N  0.97852563  0.62185180  0.00028437    -0.39500
N635        N  0.04713038  0.49050517  0.10926577    -0.37300
N636        N  0.03119016  0.57577755  0.15181136    -0.39700
N637        N  0.07953681  0.60621262  0.05099562    -0.39400
N638        N  0.09500821  0.69082724  0.09298087    -0.37100
N639        N  0.93385102  0.69188201  0.14229545    -0.38100
N640        N  0.92176873  0.60854776  0.10031590    -0.39800
C641        C  0.01155848  0.64281562  0.27785786    -0.04700
C642        C  0.02355935  0.65504859  0.30729606     0.09400
C643        C  0.03765178  0.68560402  0.30800957    -0.02100
C644        C  0.03901738  0.70400197  0.27986748    -0.00400
C645        C  0.02476599  0.69277026  0.25109351    -0.04000
C646        C  0.01177206  0.66184456  0.24993801     0.03100
C647        C  0.01772775  0.63818065  0.33839730     0.09900
C648        C  0.04976789  0.69866085  0.33806307     0.35800
C649        C  0.99957729  0.64928720  0.21974468     0.39200
C650        C  0.04318181  0.62524570  0.35651983    -0.04300
C651        C  0.03818733  0.61571850  0.38858323     0.02800
C652        C  0.00682084  0.60962551  0.39944395    -0.03900
C653        C  0.98217757  0.62766340  0.38347859    -0.00200
C654        C  0.98760064  0.64106432  0.35289467    -0.02700
C655        C  0.07489745  0.62356116  0.34286983     0.36500
C656        C  0.95211895  0.63582299  0.39843121     0.40100
C657        C  0.06083982  0.62831831  0.41161773     0.39300
C658        C  0.96188528  0.65742926  0.33591041     0.36200
C659        C  0.99903282  0.61071098  0.27598788     0.36900
C660        C  0.05504374  0.73463720  0.28080502     0.40100
N661        N  0.07843181  0.64011532  0.42961540    -0.37900
N662        N  0.09988559  0.62198397  0.33116363    -0.39500
N663        N  0.92734715  0.64305465  0.40837415    -0.37300
N664        N  0.94144757  0.67030640  0.32222386    -0.39700
N665        N  0.05939540  0.70902494  0.36203603    -0.39400
N666        N  0.06841252  0.75872997  0.28202771    -0.37100
N667        N  0.99004540  0.63922691  0.19560435    -0.38100
N668        N  0.98910205  0.58511006  0.27329186    -0.39800
C669        C  0.02553107  0.90235514  0.34148126    -0.04700
C670        C  0.04387007  0.87500558  0.33452119     0.09400
C671        C  0.06446055  0.86248311  0.35810419    -0.02100
C672        C  0.06844719  0.87838416  0.38775239    -0.00400
C673        C  0.05165930  0.90716715  0.39454870    -0.04000
C674        C  0.02919692  0.91836387  0.37129522     0.03100
C675        C  0.03949651  0.85735862  0.30350253     0.09900
C676        C  0.08144152  0.83282007  0.35180042     0.35800
C677        C  0.01100474  0.94733643  0.37633101     0.39200
C678        C  0.06074978  0.86173263  0.27762283    -0.04300
C679        C  0.05839901  0.84226077  0.24992679     0.02800
C680        C  0.03485250  0.81826267  0.24801159    -0.03900
C681        C  0.01279037  0.81485499  0.27357593    -0.00200
C682        C  0.01523931  0.83427647  0.30111706    -0.02700
C683        C  0.08520308  0.88608532  0.27932741     0.36500
C684        C  0.98829379  0.79038095  0.27252804     0.40100
C685        C  0.07963046  0.84754321  0.22305587     0.39300
C686        C  0.99331834  0.82992714  0.32764447     0.36200
C687        C  0.00339254  0.91442809  0.31741253     0.36900
C688        C  0.08947238  0.86401913  0.41123554     0.40100
N689        N  0.09643297  0.85181693  0.20153282    -0.37900
N690        N  0.10498815  0.90531571  0.27970197    -0.39500
N691        N  0.96866857  0.77098144  0.27180055    -0.37300
N692        N  0.97595222  0.82659074  0.34888149    -0.39700
N693        N  0.09478562  0.80910501  0.34677168    -0.39400
N694        N  0.10589278  0.85089331  0.42927097    -0.37100
N695        N  0.99573090  0.97027767  0.37869264    -0.38100
N696        N  0.98576512  0.92399941  0.29817073    -0.39800
C697        C  0.07574618  0.02245736  0.92788926    -0.04700
C698        C  0.10516901  0.03353359  0.91596793     0.09400
C699        C  0.11943781  0.06014487  0.93085586    -0.02100
C700        C  0.10452437  0.07471551  0.95728303    -0.00400
C701        C  0.08162775  0.05760243  0.97509452    -0.04000
C702        C  0.06352045  0.03494699  0.95709384     0.03100
C703        C  0.11849000  0.02115032  0.88494356     0.09900
C704        C  0.14758372  0.07472338  0.91711219     0.35800
C705        C  0.03076182  0.02781569  0.96548025     0.39200
C706        C  0.10893317  0.03520214  0.85567887    -0.04300
C707        C  0.12424406  0.02664542  0.82675714     0.02800
C708        C  0.14944933  0.00396343  0.82680188    -0.03900
C709        C  0.15827918  0.98916538  0.85609409    -0.00200
C710        C  0.14275765  0.99770008  0.88499267    -0.02700
C711        C  0.08412684  0.05950876  0.85563774     0.36500
C712        C  0.18498466  0.96699190  0.85707326     0.40100
C713        C  0.11427344  0.04164665  0.79698408     0.39300
C714        C  0.15262925  0.98339056  0.91512222     0.36200
C715        C  0.05833171  0.99808560  0.91030324     0.36900
C716        C  0.10070336  0.10887083  0.95457846     0.40100
N717        N  0.10638479  0.05371631  0.77327184    -0.37900
N718        N  0.06440989  0.07895819  0.85579790    -0.39500
N719        N  0.20642535  0.94945966  0.85789312    -0.37300
N720        N  0.16047273  0.97208557  0.93922781    -0.39700
N721        N  0.17013491  0.08626601  0.90623333    -0.39400
N722        N  0.09728696  0.13596971  0.95056283    -0.37100
N723        N  0.00445595  0.02207662  0.97172214    -0.38100
N724        N  0.04450043  0.97859419  0.89625038    -0.39800
C725        C  0.12955574  0.96490544  0.56345591    -0.04700
C726        C  0.10429737  0.96420855  0.58559772     0.09400
C727        C  0.07291331  0.95852068  0.57464149    -0.02100
C728        C  0.06676195  0.95326206  0.54160426    -0.00400
C729        C  0.09209140  0.95412500  0.51896978    -0.04000
C730        C  0.12340758  0.96126914  0.53034129     0.03100
C731        C  0.11118649  0.97094417  0.62030279     0.09900
C732        C  0.04690330  0.95822068  0.59753133     0.35800
C733        C  0.14926204  0.96781400  0.50839623     0.39200
C734        C  0.11716962  0.00245500  0.63049953    -0.04300
C735        C  0.13063188  0.00843145  0.66111927     0.02800
C736        C  0.13838351  0.98265146  0.68186270    -0.03900
C737        C  0.12739748  0.95163040  0.67320873    -0.00200
C738        C  0.11476035  0.94575420  0.64222672    -0.02700
C739        C  0.11067850  0.02865610  0.60873559     0.36500
C740        C  0.12903091  0.92544194  0.69581488     0.40100
C741        C  0.13692114  0.04117748  0.67050336     0.39300
C742        C  0.10683559  0.91350014  0.63228713     0.36200
C743        C  0.16211931  0.96968032  0.57493083     0.36900
C744        C  0.03421068  0.94659124  0.53162064     0.40100
N745        N  0.14173789  0.06740038  0.67780492    -0.37900
N746        N  0.10548835  0.04950886  0.59134443    -0.39500
N747        N  0.13009081  0.90450739  0.71380747    -0.37300
N748        N  0.10052277  0.88779772  0.62429829    -0.39700
N749        N  0.02618356  0.95794102  0.61581932    -0.39400
N750        N  0.00787700  0.94126850  0.52486527    -0.37100
N751        N  0.17077844  0.97381354  0.49221565    -0.38100
N752        N  0.18803094  0.97331898  0.58418534    -0.39800
C753        C  0.94927599  0.04517343  0.05416246    -0.04700
C754        C  0.93899109  0.07540488  0.04345359     0.09400
C755        C  0.96154458  0.09681579  0.03098315    -0.02100
C756        C  0.99407481  0.08858788  0.03083110    -0.00400
C757        C  0.00495495  0.06182796  0.04805669    -0.04000
C758        C  0.98235707  0.03794363  0.05519806     0.03100
C759        C  0.90447508  0.08455259  0.04255359     0.09900
C760        C  0.95120966  0.12697510  0.01735738     0.35800
C761        C  0.99279305  0.00536589  0.05978049     0.39200
C762        C  0.89129148  0.10118222  0.06868425    -0.04300
C763        C  0.86214287  0.11785654  0.06500665     0.02800
C764        C  0.84604144  0.11828103  0.03467155    -0.03900
C765        C  0.85788756  0.09858259  0.00962501    -0.00200
C766        C  0.88702224  0.08187973  0.01361600    -0.02700
C767        C  0.90883053  0.10255657  0.09889895     0.36500
C768        C  0.84041883  0.09544344  0.97959099     0.40100
C769        C  0.85009596  0.13570529  0.09235640     0.39300
C770        C  0.90002432  0.06306370  0.98742406     0.36200
C771        C  0.92595512  0.02167353  0.06377624     0.36900
C772        C  0.01375412  0.10174852  0.00584291     0.40100
N773        N  0.84064588  0.14974746  0.11435383    -0.37900
N774        N  0.92287254  0.10360652  0.12292463    -0.39500
N775        N  0.82658596  0.09281162  0.95556844    -0.37300
N776        N  0.91054614  0.04800709  0.96664173    -0.39700
N777        N  0.94286919  0.15105883  0.00667379    -0.39400
N778        N  0.02782227  0.11148126  0.98417786    -0.37100
N779        N  0.00099153  0.97917591  0.06273999    -0.38100
N780        N  0.90732498  0.00290985  0.07150326    -0.39800
C781        C  0.92381042  0.34457965  0.00170154    -0.04700
C782        C  0.89616904  0.34119512  0.02053536     0.09400
C783        C  0.88496015  0.36732558  0.03838242    -0.02100
C784        C  0.90216689  0.39610145  0.03896680    -0.00400
C785        C  0.93179696  0.39913201  0.02263079    -0.04000
C786        C  0.94174320  0.37325125  0.00283902     0.03100
C787        C  0.87744794  0.31077329  0.02081016     0.09900
C788        C  0.85544712  0.36444502  0.05645740     0.35800
C789        C  0.97091388  0.37484344  0.98446630     0.39200
C790        C  0.88537319  0.28610068  0.04251743    -0.04300
C791        C  0.86543662  0.25899040  0.04516983     0.02800
C792        C  0.83718156  0.25678454  0.02652795    -0.03900
C793        C  0.82912414  0.28194344  0.00523594    -0.00200
C794        C  0.84942765  0.30842099  0.00202958    -0.02700
C795        C  0.91392918  0.28889613  0.06227244     0.36500
C796        C  0.79934655  0.28128267  0.98706236     0.40100
C797        C  0.87450007  0.23305703  0.06625452     0.39300
C798        C  0.84126890  0.33366592  0.97963375     0.36200
C799        C  0.93386799  0.31828736  0.98135171     0.36900
C800        C  0.88799944  0.42262630  0.05589092     0.40100
N801        N  0.88187889  0.21232425  0.08301313    -0.37900
N802        N  0.93675095  0.29132351  0.07797540    -0.39500
N803        N  0.77571561  0.28127381  0.97241937    -0.37300
N804        N  0.83479915  0.35377507  0.96177191    -0.39700
N805        N  0.83190772  0.36212877  0.07072497    -0.39400
N806        N  0.87453946  0.44288111  0.06897931    -0.37100
N807        N  0.99401228  0.37452195  0.96932118    -0.38100
N808        N  0.94176775  0.29733480  0.96501374    -0.39800
C809        C  0.43530416  0.05592851  0.14092030    -0.04700
C810        C  0.44057579  0.02952724  0.12065348     0.09400
C811        C  0.43445267  0.99862411  0.13221258    -0.02100
C812        C  0.42017789  0.99426182  0.16264151    -0.00400
C813        C  0.41134889  0.02104577  0.18184856    -0.04000
C814        C  0.42117169  0.05186661  0.17139152     0.03100
C815        C  0.44889896  0.03467540  0.08594195     0.09900
C816        C  0.44202322  0.97128616  0.11214460     0.35800
C817        C  0.41652393  0.07993984  0.19135242     0.39200
C818        C  0.48068738  0.03980501  0.07621530    -0.04300
C819        C  0.48771629  0.04632352  0.04361310     0.02800
C820        C  0.46285313  0.04762068  0.02012504    -0.03900
C821        C  0.43120315  0.04042655  0.03010669    -0.00200
C822        C  0.42428626  0.03493754  0.06274824    -0.02700
C823        C  0.50620313  0.03809903  0.09990807     0.36500
C824        C  0.40557529  0.03583497  0.00706384     0.40100
C825        C  0.52069533  0.05178009  0.03482355     0.39300
C826        C  0.39152187  0.02918741  0.07262101     0.36200
C827        C  0.44337206  0.08760890  0.12970305     0.36900
C828        C  0.41432577  0.96201517  0.17350515     0.40100
N829        N  0.54727896  0.05598271  0.02862015    -0.37900
N830        N  0.52653524  0.03659807  0.11884405    -0.39500
N831        N  0.38395302  0.03119718  0.99024731    -0.37300
N832        N  0.36546026  0.02458640  0.08054856    -0.39700
N833        N  0.44812904  0.94951769  0.09610798    -0.39400
N834        N  0.40984151  0.93620332  0.18206448    -0.37100
N835        N  0.41291507  0.10248275  0.20708269    -0.38100
N836        N  0.44991264  0.11279456  0.12065883    -0.39800
C837        C  0.39279180  0.03026205  0.85380716    -0.04700
C838        C  0.37055322  0.00823108  0.86543394     0.09400
C839        C  0.37768644  0.99108122  0.89354460    -0.02100
C840        C  0.40585907  0.99774261  0.91147139    -0.00400
C841        C  0.42773798  0.02148247  0.90101536    -0.04000
C842        C  0.42110272  0.03676505  0.87123351     0.03100
C843        C  0.33958404  0.00343641  0.84773326     0.09900
C844        C  0.35534174  0.96712694  0.90447735     0.35800
C845        C  0.44305089  0.05932719  0.85759357     0.39200
C846        C  0.33692677  0.97909104  0.82439365    -0.04300
C847        C  0.30922431  0.97694710  0.80494806     0.02800
C848        C  0.28355355  0.99868115  0.80935124    -0.03900
C849        C  0.28580244  0.02229307  0.83345363    -0.00200
C850        C  0.31378387  0.02486002  0.85234528    -0.02700
C851        C  0.36299654  0.95656028  0.82007314     0.36500
C852        C  0.25900346  0.04363754  0.83934861     0.40100
C853        C  0.30795265  0.95336625  0.77933331     0.39300
C854        C  0.31570223  0.04995168  0.87626593     0.36200
C855        C  0.38618806  0.04664144  0.82378050     0.36900
C856        C  0.41024302  0.98148143  0.94173054     0.40100
N857        N  0.30698302  0.93468057  0.75880665    -0.37900
N858        N  0.38369851  0.93845513  0.81678251    -0.39500
N859        N  0.23761908  0.06059232  0.84409417    -0.37300
N860        N  0.31564881  0.07052088  0.89486299    -0.39700
N861        N  0.33753620  0.94794714  0.91306047    -0.39400
N862        N  0.41222917  0.96776743  0.96569843    -0.37100
N863        N  0.45951173  0.07736272  0.84504350    -0.38100
N864        N  0.38088401  0.05964570  0.79987386    -0.39800
C865        C  0.42688138  0.15408328  0.00447725    -0.04700
C866        C  0.39742663  0.15982288  0.98890837     0.09400
C867        C  0.38383290  0.13574732  0.96950847    -0.02100
C868        C  0.40052709  0.10695489  0.96404185    -0.00400
C869        C  0.43111882  0.10157207  0.97796610    -0.04000
C870        C  0.44372768  0.12522091  0.99910714     0.03100
C871        C  0.38034086  0.19109793  0.99292629     0.09900
C872        C  0.35292055  0.14105131  0.95427069     0.35800
C873        C  0.47499790  0.12160709  0.01380339     0.39200
C874        C  0.39027782  0.21847099  0.97592867    -0.04300
C875        C  0.37191049  0.24677294  0.97709310     0.02800
C876        C  0.34386828  0.24808272  0.99562733    -0.03900
C877        C  0.33490549  0.22130486  0.01403234    -0.00200
C878        C  0.35299340  0.19290941  0.01253934    -0.02700
C879        C  0.41931469  0.21786991  0.95713540     0.36500
C880        C  0.30627944  0.22236596  0.03356528     0.40100
C881        C  0.38214425  0.27480911  0.95968236     0.39300
C882        C  0.34308863  0.16520917  0.03068103     0.36200
C883        C  0.44029712  0.17848154  0.02535191     0.36900
C884        C  0.38617863  0.08325639  0.94330490     0.40100
N885        N  0.39029386  0.29722990  0.94590294    -0.37900
N886        N  0.44255045  0.21864741  0.94221249    -0.39500
N887        N  0.28356364  0.22301880  0.04929685    -0.37300
N888        N  0.33511824  0.14304986  0.04498104    -0.39700
N889        N  0.32821610  0.14521287  0.94225678    -0.39400
N890        N  0.37443774  0.06434686  0.92685249    -0.37100
N891        N  0.49986663  0.12011505  0.02608270    -0.38100
N892        N  0.45101882  0.19803296  0.04186484    -0.39800
C893        C  0.64743549  0.10547455  0.01783136    -0.04700
C894        C  0.64410899  0.09270235  0.98653691     0.09400
C895        C  0.67088775  0.09177346  0.96623837    -0.02100
C896        C  0.70043983  0.10452589  0.97665023    -0.00400
C897        C  0.70296894  0.12087200  0.00667123    -0.04000
C898        C  0.67624714  0.12041929  0.02752249     0.03100
C899        C  0.61150185  0.08402711  0.97377563     0.09900
C900        C  0.66749718  0.07942373  0.93376816     0.35800
C901        C  0.67708543  0.13736438  0.05794628     0.39200
C902        C  0.58908371  0.10841718  0.96771632    -0.04300
C903        C  0.55736806  0.10098396  0.95877314     0.02800
C904        C  0.54806468  0.06883833  0.95292688    -0.03900
C905        C  0.57153615  0.04448408  0.95703689    -0.00200
C906        C  0.60277915  0.05205268  0.96801216    -0.02700
C907        C  0.59871396  0.14155119  0.97111310     0.36500
C908        C  0.56412796  0.01146156  0.94982607     0.40100
C909        C  0.53446102  0.12694508  0.95835559     0.39300
C910        C  0.62595866  0.02685205  0.97374272     0.36200
C911        C  0.62045278  0.10464087  0.03955949     0.36900
C912        C  0.72789262  0.10128160  0.95568457     0.40100
N913        N  0.51768623  0.14893673  0.95890761    -0.37900
N914        N  0.60636471  0.16793113  0.97375476    -0.39500
N915        N  0.55902282  0.98494408  0.94402536    -0.37300
N916        N  0.64449522  0.00675614  0.97818496    -0.39700
N917        N  0.66467960  0.06974065  0.90783962    -0.39400
N918        N  0.74960796  0.09868126  0.93875700    -0.37100
N919        N  0.67742685  0.15113135  0.08209707    -0.38100
N920        N  0.59896774  0.10402423  0.05692470    -0.39800
C921        C  0.50299815  0.14226037  0.78015663    -0.04700
C922        C  0.52183805  0.14857576  0.80781779     0.09400
C923        C  0.54479086  0.17304723  0.80713756    -0.02100
C924        C  0.54866351  0.19142412  0.77926835    -0.00400
C925        C  0.52905656  0.18590672  0.75187698    -0.04000
C926        C  0.50625547  0.16123281  0.75242396     0.03100
C927        C  0.51636861  0.13104366  0.83852718     0.09900
C928        C  0.56414545  0.17962061  0.83546332     0.35800
C929        C  0.48667802  0.15491309  0.72422048     0.39200
C930        C  0.53298407  0.10261237  0.84530054    -0.04300
C931        C  0.52751650  0.08609208  0.87433812     0.02800
C932        C  0.50482820  0.09777628  0.89698626    -0.03900
C933        C  0.48922701  0.12722928  0.89011827    -0.00200
C934        C  0.49546678  0.14390301  0.86150401    -0.02700
C935        C  0.55524409  0.09001980  0.82179292     0.36500
C936        C  0.46573111  0.14054996  0.91160373     0.40100
C937        C  0.54377206  0.05593021  0.87894066     0.39300
C938        C  0.48000396  0.17439744  0.85538248     0.36200
C939        C  0.48051376  0.11606353  0.77981942     0.36900
C940        C  0.57208585  0.21693963  0.77947152     0.40100
N941        N  0.55740057  0.03196816  0.88109599    -0.37900
N942        N  0.57291991  0.08006067  0.80293760    -0.39500
N943        N  0.44647018  0.15197386  0.92775618    -0.37300
N944        N  0.46789643  0.19878899  0.85055820    -0.39700
N945        N  0.57950895  0.18489499  0.85807578    -0.39400
N946        N  0.59079920  0.23721917  0.77974369    -0.37100
N947        N  0.47103954  0.14999862  0.70171172    -0.38100
N948        N  0.46257338  0.09514788  0.77837617    -0.39800
C949        C  0.40452311  0.01057025  0.38834467    -0.04700
C950        C  0.42976387  0.98810332  0.38863452     0.09400
C951        C  0.44247911  0.97700339  0.35927809    -0.02100
C952        C  0.42963532  0.98776193  0.32990054    -0.00400
C953        C  0.40287358  0.00843506  0.32949862    -0.04000
C954        C  0.39087077  0.02051707  0.35887293     0.03100
C955        C  0.44181195  0.97443700  0.41967063     0.09900
C956        C  0.46763085  0.95304957  0.35929383     0.35800
C957        C  0.36298977  0.04122885  0.35900341     0.39200
C958        C  0.42453931  0.95011114  0.43483226    -0.04300
C959        C  0.43815910  0.93366396  0.46101197     0.02800
C960        C  0.46475070  0.94677371  0.47783781    -0.03900
C961        C  0.48466744  0.96717290  0.45933139    -0.00200
C962        C  0.47279102  0.98157591  0.43096891    -0.02700
C963        C  0.39402688  0.93973252  0.42169678     0.36500
C964        C  0.51845441  0.97072198  0.46637335     0.40100
C965        C  0.43353826  0.89953392  0.46017555     0.39300
C966        C  0.49238133  0.00405125  0.41350100     0.36200
C967        C  0.39169751  0.02224167  0.41849002     0.36900
C968        C  0.44362646  0.97706016  0.29990183     0.40100
N969        N  0.42958613  0.87235513  0.45730290    -0.37900
N970        N  0.36960004  0.93145301  0.41148379    -0.39500
N971        N  0.54556422  0.97411706  0.47107373    -0.37300
N972        N  0.50800161  0.02187032  0.39946799    -0.39700
N973        N  0.48758823  0.93384588  0.35940864    -0.39400
N974        N  0.45480279  0.96869351  0.27593607    -0.37100
N975        N  0.34065718  0.05763437  0.35917416    -0.38100
N976        N  0.38146834  0.03137334  0.44261016    -0.39800
C977        C  0.41234824  0.84112264  0.53022318    -0.04700
C978        C  0.38016488  0.85066057  0.53249130     0.09400
C979        C  0.37216265  0.88324744  0.53019464    -0.02100
C980        C  0.39652466  0.90625328  0.52690399    -0.00400
C981        C  0.42914894  0.89698188  0.52763840    -0.04000
C982        C  0.43666669  0.86407430  0.52855494     0.03100
C983        C  0.35511276  0.82544169  0.53305937     0.09900
C984        C  0.33879042  0.89290170  0.52993500     0.35800
C985        C  0.46880880  0.85282663  0.52333289     0.39200
C986        C  0.35242521  0.80532258  0.56004305    -0.04300
C987        C  0.33644665  0.77582173  0.55724705     0.02800
C988        C  0.32207777  0.76708976  0.52773236    -0.03900
C989        C  0.32105120  0.78952072  0.50228329    -0.00200
C990        C  0.33857856  0.81791463  0.50449743    -0.02700
C991        C  0.36783446  0.81427138  0.59004398     0.36500
C992        C  0.30201251  0.78366428  0.47353190     0.40100
C993        C  0.33646844  0.75393267  0.58407148     0.39300
C994        C  0.34142117  0.83826151  0.47652493     0.36200
C995        C  0.42031162  0.80736826  0.52777262     0.36900
C996        C  0.38757502  0.93853332  0.51880151     0.40100
N997        N  0.33652112  0.73645772  0.60549379    -0.37900
N998        N  0.38016253  0.82152151  0.61393120    -0.39500
N999        N  0.28689923  0.77931780  0.45054733    -0.37300
N1000       N  0.34375658  0.85443388  0.45422979    -0.39700
N1001       N  0.31213766  0.90047494  0.52923588    -0.39400
N1002       N  0.37895469  0.96335004  0.51032621    -0.37100
N1003       N  0.49289432  0.84067189  0.51742180    -0.38100
N1004       N  0.42652416  0.78053794  0.52548183    -0.39800
C1005       C  0.30483365  0.95635666  0.64041344    -0.04700
C1006       C  0.33015246  0.97851068  0.64288559     0.09400
C1007       C  0.32723940  0.00480854  0.66390614    -0.02100
C1008       C  0.30013981  0.00797112  0.68367612    -0.00400
C1009       C  0.27510241  0.98521166  0.68201861    -0.04000
C1010       C  0.27721753  0.95993827  0.65953914     0.03100
C1011       C  0.36108822  0.97297016  0.62547720     0.09900
C1012       C  0.35274476  0.02817339  0.66592694     0.35800
C1013       C  0.25074253  0.93795356  0.65558557     0.39200
C1014       C  0.36955299  0.99190885  0.59913850    -0.04300
C1015       C  0.39970040  0.98809146  0.58419884     0.02800
C1016       C  0.42230587  0.96496931  0.59552225    -0.03900
C1017       C  0.41314127  0.94618049  0.62250199    -0.00200
C1018       C  0.38285596  0.95005891  0.63694394    -0.02700
C1019       C  0.34681782  0.01541461  0.58724992     0.36500
C1020       C  0.43481951  0.92364850  0.63741928     0.40100
C1021       C  0.40589220  0.00782243  0.55657001     0.39300
C1022       C  0.37409422  0.93063872  0.66433542     0.36200
C1023       C  0.30764194  0.92928817  0.61886159     0.36900
C1024       C  0.29915945  0.03380804  0.70699951     0.40100
N1025       N  0.40874040  0.02415977  0.53448274    -0.37900
N1026       N  0.32875790  0.03422912  0.57787351    -0.39500
N1027       N  0.45033506  0.90465058  0.65023345    -0.37300
N1028       N  0.36693760  0.91510705  0.68601072    -0.39700
N1029       N  0.37297476  0.04691604  0.66729066    -0.39400
N1030       N  0.29847837  0.05438192  0.72561158    -0.37100
N1031       N  0.22950769  0.92057372  0.65228289    -0.38100
N1032       N  0.30993804  0.90736373  0.60206990    -0.39800
C1033       C  0.53970844  0.11481971  0.61171534    -0.04700
C1034       C  0.51088465  0.11208576  0.59403597     0.09400
C1035       C  0.49338291  0.13998121  0.58659779    -0.02100
C1036       C  0.50401315  0.17011179  0.59766567    -0.00400
C1037       C  0.53128475  0.17258965  0.61808740    -0.04000
C1038       C  0.54961230  0.14465965  0.62411587     0.03100
C1039       C  0.49784998  0.07963151  0.58541669     0.09900
C1040       C  0.46340730  0.13749118  0.56897294     0.35800
C1041       C  0.57751282  0.14576298  0.64501913     0.39200
C1042       C  0.48533092  0.05992457  0.60949436    -0.04300
C1043       C  0.47481338  0.02857813  0.60223752     0.02800
C1044       C  0.47576102  0.01651776  0.56999275    -0.03900
C1045       C  0.48385342  0.03879080  0.54559818    -0.00200
C1046       C  0.49670131  0.06903705  0.55336893    -0.02700
C1047       C  0.48357382  0.07205037  0.64220419     0.36500
C1048       C  0.47510133  0.03306062  0.51242495     0.40100
C1049       C  0.46341760  0.01000631  0.62899665     0.39300
C1050       C  0.50881762  0.08938822  0.52815149     0.36200
C1051       C  0.55857109  0.08656581  0.61865918     0.36900
C1052       C  0.48646150  0.19847083  0.58810143     0.40100
N1053       N  0.45498373  0.99698366  0.65186186    -0.37900
N1054       N  0.48220718  0.08164223  0.66825609    -0.39500
N1055       N  0.46716483  0.03043785  0.48591357    -0.37300
N1056       N  0.51850306  0.10558310  0.50803378    -0.39700
N1057       N  0.43946638  0.13541617  0.55500131    -0.39400
N1058       N  0.47235371  0.22095019  0.58025286    -0.37100
N1059       N  0.59966892  0.14644944  0.66182726    -0.38100
N1060       N  0.57395225  0.06440542  0.62479736    -0.39800
C1061       C  0.45714808  0.57804335  0.58064022    -0.04700
C1062       C  0.44458075  0.58658378  0.55037464     0.09400
C1063       C  0.46287835  0.58067194  0.52276577    -0.02100
C1064       C  0.49457852  0.56913016  0.52534054    -0.00400
C1065       C  0.50884050  0.56341667  0.55596555    -0.04000
C1066       C  0.48868423  0.56563238  0.58338271     0.03100
C1067       C  0.41259032  0.60285908  0.54679830     0.09900
C1068       C  0.44907881  0.58741385  0.49136714     0.35800
C1069       C  0.49966455  0.55398071  0.61430255     0.39200
C1070       C  0.41146401  0.63575290  0.53968848    -0.04300
C1071       C  0.38245460  0.65037817  0.53046217     0.02800
C1072       C  0.35387074  0.63258852  0.52921667    -0.03900
C1073       C  0.35452587  0.60002029  0.53769408    -0.00200
C1074       C  0.38389781  0.58507222  0.54602589    -0.02700
C1075       C  0.44032858  0.65473550  0.54097047     0.36500
C1076       C  0.32529312  0.58159588  0.53642940     0.40100
C1077       C  0.38223615  0.68393871  0.52197719     0.39300
C1078       C  0.38484879  0.55118230  0.55263531     0.36200
C1079       C  0.43780860  0.58268549  0.60904524     0.36900
C1080       C  0.51168679  0.56388523  0.49572206     0.40100
N1081       N  0.38257374  0.71063060  0.51507380    -0.37900
N1082       N  0.46270868  0.67085285  0.54159603    -0.39500
N1083       N  0.30204543  0.56672355  0.53531936    -0.37300
N1084       N  0.38565764  0.52411174  0.55786934    -0.39700
N1085       N  0.43803622  0.59291393  0.46644074    -0.39400
N1086       N  0.52300738  0.55953018  0.47081963    -0.37100
N1087       N  0.50804228  0.54449809  0.63903104    -0.38100
N1088       N  0.42234125  0.58639198  0.63171030    -0.39800
C1089       C  0.60938451  0.57538475  0.43041839    -0.04700
C1090       C  0.61771793  0.54498275  0.41821491     0.09400
C1091       C  0.60938207  0.51783824  0.43599932    -0.02100
C1092       C  0.59611881  0.52094078  0.46703906    -0.00400
C1093       C  0.59201793  0.55158098  0.48149105    -0.04000
C1094       C  0.59534418  0.57853621  0.46123488     0.03100
C1095       C  0.63377937  0.54091490  0.38603345     0.09900
C1096       C  0.61448723  0.48638372  0.42211108     0.35800
C1097       C  0.58318511  0.60934291  0.47145600     0.39200
C1098       C  0.66606359  0.53068867  0.38430926    -0.04300
C1099       C  0.68029337  0.52399198  0.35435568     0.02800
C1100       C  0.66289416  0.52839815  0.32556239    -0.03900
C1101       C  0.63086722  0.53911445  0.32704291    -0.00200
C1102       C  0.61615684  0.54467304  0.35713994    -0.02700
C1103       C  0.68524843  0.52706290  0.41314474     0.36500
C1104       C  0.61290220  0.54379763  0.29754909     0.40100
C1105       C  0.71332598  0.51315121  0.35327386     0.39300
C1106       C  0.58263259  0.55352060  0.35844558     0.36200
C1107       C  0.61599609  0.60352271  0.41157962     0.36900
C1108       C  0.58532048  0.49209086  0.48232899     0.40100
N1109       N  0.73959522  0.50434388  0.35288000    -0.37900
N1110       N  0.70208397  0.52367799  0.43501965    -0.39500
N1111       N  0.59864838  0.54751463  0.27393835    -0.37300
N1112       N  0.55584981  0.56050641  0.35961292    -0.39700
N1113       N  0.61856898  0.46135085  0.41102711    -0.39400
N1114       N  0.57585019  0.46815419  0.49208802    -0.37100
N1115       N  0.57336006  0.63399119  0.47930396    -0.38100
N1116       N  0.62130759  0.62595568  0.39647841    -0.39800
C1117       C  0.59618645  0.36679306  0.61220289    -0.04700
C1118       C  0.57565674  0.37767860  0.58748323     0.09400
C1119       C  0.55151531  0.35696076  0.57572623    -0.02100
C1120       C  0.54472597  0.32814765  0.59187604    -0.00400
C1121       C  0.56427185  0.31803863  0.61774454    -0.04000
C1122       C  0.59192201  0.33624102  0.62551874     0.03100
C1123       C  0.57730010  0.41186702  0.57638215     0.09900
C1124       C  0.53327231  0.36567149  0.54732581     0.35800
C1125       C  0.61608937  0.32408349  0.64750950     0.39200
C1126       C  0.60524672  0.42447883  0.56231810    -0.04300
C1127       C  0.60800644  0.45770833  0.55696667     0.02800
C1128       C  0.58170249  0.47835446  0.56272110    -0.03900
C1129       C  0.55232032  0.46460850  0.57222208    -0.00200
C1130       C  0.55092180  0.43234154  0.58139787    -0.02700
C1131       C  0.63110282  0.40322552  0.55316876     0.36500
C1132       C  0.52289847  0.48278816  0.57273423     0.40100
C1133       C  0.63741717  0.47022432  0.54391097     0.39300
C1134       C  0.52245953  0.42059809  0.59730664     0.36200
C1135       C  0.62080637  0.38757367  0.62526379     0.36900
C1136       C  0.51806044  0.30866244  0.58132491     0.40100
N1137       N  0.66110168  0.47978659  0.53352372    -0.37900
N1138       N  0.65174245  0.38628263  0.54582825    -0.39500
N1139       N  0.49794056  0.49474826  0.57266815    -0.37300
N1140       N  0.49978524  0.41129475  0.60996770    -0.39700
N1141       N  0.51879696  0.37266193  0.52462960    -0.39400
N1142       N  0.49670622  0.29321361  0.57283685    -0.37100
N1143       N  0.63565701  0.31437361  0.66470967    -0.38100
N1144       N  0.64047009  0.40408324  0.63567156    -0.39800
C1145       C  0.67177898  0.36251104  0.97948111    -0.04700
C1146       C  0.65765326  0.34157115  0.00141031     0.09400
C1147       C  0.62907071  0.35038884  0.01670585    -0.02100
C1148       C  0.61303272  0.37889755  0.00802851    -0.00400
C1149       C  0.62630885  0.39971320  0.98469117    -0.04000
C1150       C  0.65655282  0.39144818  0.97143834     0.03100
C1151       C  0.67389640  0.31060820  0.00863092     0.09900
C1152       C  0.61586963  0.32958610  0.04095636     0.35800
C1153       C  0.67272652  0.41208649  0.94920133     0.39200
C1154       C  0.69968251  0.31013638  0.03057297    -0.04300
C1155       C  0.71896467  0.28270026  0.03335685     0.02800
C1156       C  0.71276884  0.25565417  0.01379926    -0.03900
C1157       C  0.68599280  0.25551674  0.99311221    -0.00200
C1158       C  0.66627347  0.28278141  0.99087884    -0.02700
C1159       C  0.70672691  0.33826964  0.04976111     0.36500
C1160       C  0.67841504  0.22706578  0.97462952     0.40100
C1161       C  0.74603069  0.28296996  0.05540515     0.39300
C1162       C  0.63804611  0.28173966  0.97056137     0.36200
C1163       C  0.70195360  0.35377878  0.96455508     0.36900
C1164       C  0.58166700  0.38457795  0.02143347     0.40100
N1165       N  0.76753080  0.28325435  0.07306407    -0.37900
N1166       N  0.71225711  0.36072794  0.06504332    -0.39500
N1167       N  0.67250351  0.20430724  0.95995779    -0.37300
N1168       N  0.61546053  0.27946467  0.95450784    -0.39700
N1169       N  0.60548628  0.31304137  0.06041838    -0.39400
N1170       N  0.55660964  0.38758850  0.03271173    -0.37100
N1171       N  0.68734608  0.42750135  0.93174949    -0.38100
N1172       N  0.72596053  0.34678243  0.95270283    -0.39800
C1173       C  0.56762881  0.35151256  0.86815898    -0.04700
C1174       C  0.54902922  0.36316541  0.84249204     0.09400
C1175       C  0.53237755  0.39221591  0.84624014    -0.02100
C1176       C  0.53596442  0.41061540  0.87470148    -0.00400
C1177       C  0.55609989  0.39988023  0.90018082    -0.04000
C1178       C  0.57118366  0.36962190  0.89660960     0.03100
C1179       C  0.54737545  0.34470771  0.81148974     0.09900
C1180       C  0.51237309  0.40368644  0.82010689     0.35800
C1181       C  0.59134412  0.35678874  0.92162921     0.39200
C1182       C  0.52897954  0.31661145  0.80951548    -0.04300
C1183       C  0.52857143  0.29830548  0.78098533     0.02800
C1184       C  0.54719556  0.30751678  0.75427882    -0.03900
C1185       C  0.56475386  0.33607699  0.75593844    -0.00200
C1186       C  0.56489693  0.35459066  0.78435634    -0.02700
C1187       C  0.51041877  0.30653240  0.83697976     0.36500
C1188       C  0.58095917  0.34785443  0.72780254     0.40100
C1189       C  0.50863344  0.27008407  0.77930538     0.39300
C1190       C  0.58284487  0.38408147  0.78502657     0.36200
C1191       C  0.58407639  0.32107568  0.86485445     0.36900
C1192       C  0.52108756  0.44179859  0.87576947     0.40100
N1193       N  0.49222280  0.24792476  0.77845276    -0.37900
N1194       N  0.49576754  0.29842521  0.85894431    -0.39500
N1195       N  0.59365644  0.35862827  0.70582609    -0.37300
N1196       N  0.59723540  0.40756187  0.78390868    -0.39700
N1197       N  0.49656775  0.41277666  0.79912371    -0.39400
N1198       N  0.50885292  0.46657710  0.87516113    -0.37100
N1199       N  0.60763861  0.34536587  0.94087880    -0.38100
N1200       N  0.59705305  0.29677227  0.86231862    -0.39800
C1201       C  0.63237425  0.47390583  0.06514618    -0.04700
C1202       C  0.60701106  0.47820936  0.08677516     0.09400
C1203       C  0.57544567  0.47228756  0.07624512    -0.02100
C1204       C  0.56927668  0.46223870  0.04417780    -0.00400
C1205       C  0.59482032  0.45771763  0.02212858    -0.04000
C1206       C  0.62648889  0.46418668  0.03316945     0.03100
C1207       C  0.61447534  0.48917790  0.12051793     0.09900
C1208       C  0.54926666  0.47691507  0.09845559     0.35800
C1209       C  0.65367426  0.46306120  0.01187910     0.39200
C1210       C  0.62331399  0.52113111  0.12640122    -0.04300
C1211       C  0.63895264  0.52981726  0.15541937     0.02800
C1212       C  0.64544794  0.50653483  0.17933020    -0.03900
C1213       C  0.63212031  0.47554207  0.17496243    -0.00200
C1214       C  0.61757976  0.46679156  0.14543824    -0.02700
C1215       C  0.61772098  0.54477764  0.10166500     0.36500
C1216       C  0.63351945  0.45216815  0.20052021     0.40100
C1217       C  0.64952874  0.56247611  0.15952903     0.39300
C1218       C  0.60734954  0.43416729  0.13997406     0.36200
C1219       C  0.66495313  0.48019034  0.07581659     0.36900
C1220       C  0.53646852  0.45640109  0.03438958     0.40100
N1221       N  0.65789384  0.58859984  0.16261815    -0.37900
N1222       N  0.61320305  0.56362798  0.08193376    -0.39500
N1223       N  0.63448809  0.43343868  0.22083100    -0.37300
N1224       N  0.59922057  0.40815896  0.13550157    -0.39700
N1225       N  0.52839553  0.48058357  0.11623083    -0.39400
N1226       N  0.51010259  0.45183339  0.02712025    -0.37100
N1227       N  0.67679997  0.46301287  0.99679247    -0.38100
N1228       N  0.69087685  0.48542828  0.08415045    -0.39800
C1229       C  0.45530904  0.45346376  0.95797902    -0.04700
C1230       C  0.44509714  0.42238661  0.96551006     0.09400
C1231       C  0.46765982  0.39735521  0.96580469    -0.02100
C1232       C  0.50020719  0.40323485  0.95928395    -0.00400
C1233       C  0.51082163  0.43430837  0.95102615    -0.04000
C1234       C  0.48782872  0.45941539  0.95056903     0.03100
C1235       C  0.41070571  0.41518318  0.97329868     0.09900
C1236       C  0.45730363  0.36524032  0.97353641     0.35800
C1237       C  0.49706531  0.49152155  0.94204236     0.39200
C1238       C  0.38763071  0.41274614  0.94859499    -0.04300
C1239       C  0.35733709  0.39921170  0.95475470     0.02800
C1240       C  0.35060015  0.38558502  0.98519421    -0.03900
C1241       C  0.37283004  0.39096140  0.01068044    -0.00200
C1242       C  0.40225953  0.40640610  0.00478084    -0.02700
C1243       C  0.39570974  0.42264351  0.91633085     0.36500
C1244       C  0.36671705  0.37929527  0.04277525     0.40100
C1245       C  0.33328497  0.39947996  0.92948056     0.39300
C1246       C  0.42477572  0.41191707  0.03089391     0.36200
C1247       C  0.43233906  0.47946631  0.95837028     0.36900
C1248       C  0.52242788  0.37701902  0.96342691     0.40100
N1249       N  0.31408991  0.39998200  0.90932608    -0.37900
N1250       N  0.40226538  0.43049886  0.89060973    -0.39500
N1251       N  0.36213353  0.36995687  0.06843734    -0.37300
N1252       N  0.44272413  0.41637897  0.05169836    -0.39700
N1253       N  0.44901379  0.33976738  0.97995811    -0.39400
N1254       N  0.53850013  0.35488554  0.96751760    -0.37100
N1255       N  0.50364838  0.51734684  0.93511514    -0.38100
N1256       N  0.41403594  0.50024133  0.95865252    -0.39800
C1257       C  0.90284957  0.90172696  0.50982708    -0.04700
C1258       C  0.91007260  0.91171658  0.47843926     0.09400
C1259       C  0.88629096  0.91001400  0.45442494    -0.02100
C1260       C  0.85651651  0.89563819  0.46087990    -0.00400
C1261       C  0.85065720  0.88134084  0.49128935    -0.04000
C1262       C  0.87355915  0.88627164  0.51626500     0.03100
C1263       C  0.94374847  0.92040783  0.46967952     0.09900
C1264       C  0.89305754  0.92197405  0.42252559     0.35800
C1265       C  0.86805110  0.87455169  0.54845317     0.39200
C1266       C  0.96687621  0.89613054  0.46649483    -0.04300
C1267       C  0.99842404  0.90342025  0.45717530     0.02800
C1268       C  0.00740317  0.93534488  0.45033138    -0.03900
C1269       C  0.98380634  0.95969855  0.45372305    -0.00200
C1270       C  0.95234349  0.95220115  0.46348466    -0.02700
C1271       C  0.95824277  0.86337901  0.47363937     0.36500
C1272       C  0.99109967  0.99268221  0.44676291     0.40100
C1273       C  0.02148216  0.87763092  0.45698452     0.39300
C1274       C  0.92877998  0.97733682  0.46776274     0.36200
C1275       C  0.92620609  0.90646832  0.53532684     0.36900
C1276       C  0.83239666  0.89542629  0.43564093     0.40100
N1277       N  0.03821057  0.85562061  0.45765071    -0.37900
N1278       N  0.95139660  0.83737600  0.47965046    -0.39500
N1279       N  0.99551547  0.01929393  0.44119870    -0.37300
N1280       N  0.91000006  0.99739040  0.47120675    -0.39700
N1281       N  0.89857682  0.93166036  0.39719433    -0.39400
N1282       N  0.81334706  0.89538592  0.41533788    -0.37100
N1283       N  0.86388727  0.86522896  0.57419565    -0.38100
N1284       N  0.94472182  0.91031373  0.55575004    -0.39800
C1285       C  0.65627974  0.88136090  0.54597768    -0.04700
C1286       C  0.64772184  0.90721809  0.52618273     0.09400
C1287       C  0.66917013  0.91755599  0.50236960    -0.02100
C1288       C  0.69847216  0.90119598  0.49746838    -0.00400
C1289       C  0.70620947  0.87401115  0.51599506    -0.04000
C1290       C  0.68519603  0.86471729  0.54088470     0.03100
C1291       C  0.61452158  0.92073301  0.52843072     0.09900
C1292       C  0.66073964  0.94471203  0.48262406     0.35800
C1293       C  0.69236687  0.83704011  0.56051840     0.39200
C1294       C  0.60743301  0.94669076  0.54888581    -0.04300
C1295       C  0.57520126  0.95551396  0.55453084     0.02800
C1296       C  0.55001734  0.93737125  0.54122315    -0.03900
C1297       C  0.55744756  0.91451676  0.51722223    -0.00200
C1298       C  0.58950597  0.90585999  0.51131768    -0.02700
C1299       C  0.63329759  0.96421605  0.56399241     0.36500
C1300       C  0.53271704  0.90142940  0.49662190     0.40100
C1301       C  0.56802632  0.98487903  0.57123752     0.39300
C1302       C  0.59685346  0.88124042  0.48783473     0.36200
C1303       C  0.63468860  0.87129540  0.57113262     0.36900
C1304       C  0.72105333  0.91290947  0.47407964     0.40100
N1305       N  0.56251589  0.00913448  0.58331796    -0.37900
N1306       N  0.65402253  0.97826345  0.57591635    -0.39500
N1307       N  0.51428028  0.89137347  0.47841281    -0.37300
N1308       N  0.60275919  0.86166236  0.46909242    -0.39700
N1309       N  0.65394558  0.96643339  0.46692600    -0.39400
N1310       N  0.73926304  0.92241188  0.45565946    -0.37100
N1311       N  0.69802385  0.81503469  0.57626476    -0.38100
N1312       N  0.61750080  0.86336320  0.59122403    -0.39800
C1313       C  0.71835259  0.68228183  0.52090074    -0.04700
C1314       C  0.69230134  0.67773146  0.49966902     0.09400
C1315       C  0.68335084  0.70232880  0.47849302    -0.02100
C1316       C  0.69879525  0.73217918  0.48007058    -0.00400
C1317       C  0.72416298  0.73736143  0.50227942    -0.04000
C1318       C  0.73445796  0.71178004  0.52201604     0.03100
C1319       C  0.66925013  0.65139657  0.50618611     0.09900
C1320       C  0.65706540  0.69722554  0.45615806     0.35800
C1321       C  0.76195721  0.71535007  0.54319864     0.39200
C1322       C  0.64503848  0.65752788  0.52848599    -0.04300
C1323       C  0.62609042  0.63256883  0.54011000     0.02800
C1324       C  0.62847421  0.60118094  0.52691551    -0.03900
C1325       C  0.65324141  0.59527970  0.50434566    -0.00200
C1326       C  0.67341556  0.62028284  0.49400053    -0.02700
C1327       C  0.64074330  0.68985457  0.54090463     0.36500
C1328       C  0.66124468  0.56272738  0.49593486     0.40100
C1329       C  0.60779801  0.64016798  0.56836455     0.39300
C1330       C  0.69905205  0.61392022  0.47161029     0.36200
C1331       C  0.72760720  0.65691493  0.54270521     0.36900
C1332       C  0.68732645  0.75794933  0.45986826     0.40100
N1333       N  0.59670947  0.64987629  0.59181893    -0.37900
N1334       N  0.63735434  0.71550408  0.55072421    -0.39500
N1335       N  0.66761201  0.53638845  0.49068369    -0.37300
N1336       N  0.71953800  0.60887197  0.45371437    -0.39700
N1337       N  0.63613656  0.69302505  0.43832419    -0.39400
N1338       N  0.67810174  0.77851308  0.44380516    -0.37100
N1339       N  0.78389468  0.71808011  0.56008925    -0.38100
N1340       N  0.73492375  0.63670299  0.56012423    -0.39800
C1341       C  0.87819776  0.70217065  0.51488155    -0.04700
C1342       C  0.87600159  0.68238777  0.48753389     0.09400
C1343       C  0.85765192  0.69246940  0.46087061    -0.02100
C1344       C  0.84110834  0.72188536  0.46170106    -0.00400
C1345       C  0.84390843  0.74238690  0.48883574    -0.04000
C1346       C  0.86354257  0.73249656  0.51504112     0.03100
C1347       C  0.89674294  0.65327044  0.48504086     0.09900
C1348       C  0.85601773  0.67267982  0.43224160     0.35800
C1349       C  0.86988746  0.75372259  0.54196880     0.39200
C1350       C  0.88352930  0.62226640  0.48422766    -0.04300
C1351       C  0.90334327  0.59552267  0.47811419     0.02800
C1352       C  0.93646703  0.59963592  0.47353885    -0.03900
C1353       C  0.94974542  0.63063174  0.47572474    -0.00200
C1354       C  0.93001796  0.65718820  0.48156670    -0.02700
C1355       C  0.84950906  0.61802733  0.48910217     0.36500
C1356       C  0.98357969  0.63602101  0.47042586     0.40100
C1357       C  0.88951329  0.56400068  0.47510389     0.39300
C1358       C  0.94388472  0.68893769  0.48225897     0.36200
C1359       C  0.89608947  0.69134429  0.54282395     0.36900
C1360       C  0.82082608  0.73031629  0.43460371     0.40100
N1361       N  0.87842042  0.53886727  0.47252130    -0.37900
N1362       N  0.82233459  0.61464647  0.49295292    -0.39500
N1363       N  0.01048555  0.64142368  0.46711106    -0.37300
N1364       N  0.95495000  0.71419207  0.48298820    -0.39700
N1365       N  0.85449012  0.65708526  0.40929874    -0.39400
N1366       N  0.80468867  0.73677911  0.41288032    -0.37100
N1367       N  0.87515750  0.77062916  0.56339262    -0.38100
N1368       N  0.91038350  0.68264977  0.56502912    -0.39800
C1369       C  0.53978216  0.87360786  0.90385955    -0.04700
C1370       C  0.50877614  0.88209410  0.91405358     0.09400
C1371       C  0.48456954  0.85882218  0.91428949    -0.02100
C1372       C  0.49050933  0.82813816  0.90158023    -0.00400
C1373       C  0.52010706  0.82114587  0.88638706    -0.04000
C1374       C  0.54549758  0.84338439  0.88984300     0.03100
C1375       C  0.50079714  0.91625447  0.92133627     0.09900
C1376       C  0.45296718  0.86703003  0.92607266     0.35800
C1377       C  0.57728652  0.83610595  0.87806377     0.39200
C1378       C  0.49801627  0.93814383  0.89593782    -0.04300
C1379       C  0.49019260  0.97032276  0.90209626     0.02800
C1380       C  0.48347848  0.98091503  0.93384068    -0.03900
C1381       C  0.48659798  0.95863458  0.95934095    -0.00200
C1382       C  0.49549214  0.92665130  0.95304361    -0.02700
C1383       C  0.50351843  0.92744237  0.86317311     0.36500
C1384       C  0.47985059  0.96780098  0.99220583     0.40100
C1385       C  0.49110915  0.99227717  0.87540434     0.39300
C1386       C  0.49937966  0.90428337  0.97926062     0.36200
C1387       C  0.56546053  0.89669755  0.90649612     0.36900
C1388       C  0.46591453  0.80396437  0.90424113     0.40100
N1389       N  0.49244340  0.00841155  0.85301387    -0.37900
N1390       N  0.50803987  0.91890042  0.83712561    -0.39500
N1391       N  0.47451339  0.97405342  0.01872087    -0.37300
N1392       N  0.50246746  0.88639415  0.00013038    -0.39700
N1393       N  0.42780591  0.87370984  0.93546569    -0.39400
N1394       N  0.44630671  0.78471291  0.90662972    -0.37100
N1395       N  0.60274029  0.83041749  0.86880861    -0.38100
N1396       N  0.58590503  0.91514385  0.90860438    -0.39800
C1397       C  0.57427274  0.64164298  0.90593174    -0.04700
C1398       C  0.55179707  0.61668845  0.90533599     0.09400
C1399       C  0.52051301  0.62286212  0.89384251    -0.02100
C1400       C  0.51256266  0.65288188  0.88041379    -0.00400
C1401       C  0.53605072  0.67714631  0.87812636    -0.04000
C1402       C  0.56630874  0.67183275  0.89311694     0.03100
C1403       C  0.56168704  0.58335959  0.91470809     0.09900
C1404       C  0.49669421  0.59782970  0.89501769     0.35800
C1405       C  0.58942753  0.69746845  0.89587708     0.39200
C1406       C  0.56480687  0.57455486  0.94717212    -0.04300
C1407       C  0.57410686  0.54311172  0.95561704     0.02800
C1408       C  0.57923353  0.51938958  0.93156374    -0.03900
C1409       C  0.57538845  0.52861344  0.89887459    -0.00200
C1410       C  0.56785178  0.56048145  0.89068797    -0.02700
C1411       C  0.55790689  0.59793541  0.97198214     0.36500
C1412       C  0.57637139  0.50546321  0.87303792     0.40100
C1413       C  0.57866522  0.53591838  0.98931148     0.39300
C1414       C  0.56597763  0.56984036  0.85717813     0.36200
C1415       C  0.60614352  0.63584553  0.91870633     0.36900
C1416       C  0.48033112  0.65814710  0.86843973     0.40100
N1417       N  0.58221447  0.53126520  0.01645361    -0.37900
N1418       N  0.55231330  0.61660900  0.99172644    -0.39500
N1419       N  0.57633200  0.48841698  0.85112881    -0.37300
N1420       N  0.56455232  0.57741581  0.83052359    -0.39700
N1421       N  0.47767146  0.57787490  0.89589102    -0.39400
N1422       N  0.45446302  0.66224635  0.85920809    -0.37100
N1423       N  0.60783236  0.71792365  0.89820850    -0.38100
N1424       N  0.63155705  0.63118118  0.92888784    -0.39800
C1425       C  0.53019958  0.85569454  0.62809736    -0.04700
C1426       C  0.52483799  0.87080979  0.65799660     0.09400
C1427       C  0.52100381  0.90423467  0.65874050    -0.02100
C1428       C  0.51884546  0.92146893  0.62984726    -0.00400
C1429       C  0.51737820  0.90545989  0.60000224    -0.04000
C1430       C  0.52690235  0.87310244  0.59917383     0.03100
C1431       C  0.52318326  0.85184482  0.68854556     0.09900
C1432       C  0.51721674  0.92091314  0.68912293     0.35800
C1433       C  0.53879686  0.85909627  0.56988546     0.39200
C1434       C  0.54593940  0.85651324  0.71333851    -0.04300
C1435       C  0.54231240  0.84122715  0.74319394     0.02800
C1436       C  0.51813725  0.81801001  0.74745296    -0.03900
C1437       C  0.49612411  0.81233007  0.72200799    -0.00200
C1438       C  0.49788606  0.83010646  0.69332624    -0.02700
C1439       C  0.57370449  0.87640106  0.70783922     0.36500
C1440       C  0.47284433  0.78685764  0.72419343     0.40100
C1441       C  0.56327637  0.84998694  0.76970604     0.39300
C1442       C  0.47377745  0.82569201  0.66846116     0.36200
C1443       C  0.53939130  0.82229780  0.62717885     0.36900
C1444       C  0.52142834  0.95570704  0.63119643     0.40100
N1445       N  0.57977933  0.85721007  0.79092911    -0.37900
N1446       N  0.59588500  0.89218812  0.70341341    -0.39500
N1447       N  0.45448992  0.76632189  0.72567426    -0.37300
N1448       N  0.45465482  0.82215627  0.64854645    -0.39700
N1449       N  0.51425002  0.93425424  0.71331351    -0.39400
N1450       N  0.52575709  0.98275351  0.63417071    -0.37100
N1451       N  0.55073546  0.84700237  0.54797428    -0.38100
N1452       N  0.54667141  0.79564843  0.62646237    -0.39800
C1453       C  0.54108712  0.69217469  0.68319321    -0.04700
C1454       C  0.52427742  0.66317877  0.68043639     0.09400
C1455       C  0.50569210  0.65234921  0.70634570    -0.02100
C1456       C  0.50644190  0.66875408  0.73594269    -0.00400
C1457       C  0.52455185  0.69699222  0.73924298    -0.04000
C1458       C  0.54062339  0.70942777  0.71225710     0.03100
C1459       C  0.53284002  0.64040483  0.65420943     0.09900
C1460       C  0.48763775  0.62300519  0.70305528     0.35800
C1461       C  0.55654399  0.74010885  0.71409494     0.39200
C1462       C  0.55512010  0.61630523  0.66135517    -0.04300
C1463       C  0.56603102  0.59566578  0.63714565     0.02800
C1464       C  0.55416550  0.59818763  0.60517683    -0.03900
C1465       C  0.53329786  0.62401623  0.59776424    -0.00200
C1466       C  0.52203545  0.64448289  0.62237412    -0.02700
C1467       C  0.56803153  0.61363335  0.69385640     0.36500
C1468       C  0.52765770  0.63242616  0.56450440     0.40100
C1469       C  0.59150132  0.57412740  0.64603564     0.39300
C1470       C  0.50043685  0.67056473  0.61498194     0.36200
C1471       C  0.56043113  0.70331047  0.65671820     0.36900
C1472       C  0.49043124  0.65529019  0.76351223     0.40100
N1473       N  0.61275894  0.55967809  0.65630654    -0.37900
N1474       N  0.57827619  0.61156121  0.71965086    -0.39500
N1475       N  0.52431222  0.63915797  0.53778643    -0.37300
N1476       N  0.48334137  0.69165173  0.60953361    -0.39700
N1477       N  0.47334292  0.59955087  0.70035311    -0.39400
N1478       N  0.47790391  0.64435697  0.78554968    -0.37100
N1479       N  0.56922354  0.76458349  0.71522662    -0.38100
N1480       N  0.57592638  0.71219177  0.63566739    -0.39800
C1481       C  0.94378602  0.50959466  0.86806004    -0.04700
C1482       C  0.95162667  0.47787878  0.87631195     0.09400
C1483       C  0.94971284  0.45394551  0.85255482    -0.02100
C1484       C  0.93687741  0.46099113  0.82194521    -0.00400
C1485       C  0.92323049  0.49149620  0.81563267    -0.04000
C1486       C  0.92930285  0.51643496  0.83802067     0.03100
C1487       C  0.95745267  0.46888359  0.91080973     0.09900
C1488       C  0.95902679  0.42150018  0.86032040     0.35800
C1489       C  0.91976429  0.54896416  0.83106017     0.39200
C1490       C  0.93127172  0.46698798  0.93180266    -0.04300
C1491       C  0.93580763  0.45834598  0.96428193     0.02800
C1492       C  0.96666145  0.44982217  0.97613748    -0.03900
C1493       C  0.99266730  0.45047761  0.95430158    -0.00200
C1494       C  0.98818057  0.46063132  0.92217233    -0.02700
C1495       C  0.89931804  0.47418533  0.91977918     0.36500
C1496       C  0.02392238  0.43891314  0.96395626     0.40100
C1497       C  0.90832420  0.46027802  0.98505457     0.39300
C1498       C  0.01525722  0.46275018  0.90069725     0.36200
C1499       C  0.94939271  0.53502049  0.89110065     0.36900
C1500       C  0.93742591  0.43642711  0.79728631     0.40100
N1501       N  0.88499670  0.46278749  0.99962318    -0.37900
N1502       N  0.87393402  0.47990370  0.91007581    -0.39500
N1503       N  0.04886713  0.42870459  0.97041248    -0.37300
N1504       N  0.03684343  0.46451088  0.88354501    -0.39700
N1505       N  0.96635615  0.39563331  0.86665712    -0.39400
N1506       N  0.93805623  0.41682576  0.77763827    -0.37100
N1507       N  0.91229627  0.57500716  0.82564807    -0.38100
N1508       N  0.95394921  0.55556897  0.90917925    -0.39800
C1509       C  0.89629688  0.53558690  0.61688290    -0.04700
C1510       C  0.92873796  0.52772157  0.61183272     0.09400
C1511       C  0.94606110  0.51172035  0.63619741    -0.02100
C1512       C  0.93093509  0.50333574  0.66531539    -0.00400
C1513       C  0.89849110  0.51131956  0.67039205    -0.04000
C1514       C  0.88124976  0.52743797  0.64594305     0.03100
C1515       C  0.94364611  0.53429581  0.57974469     0.09900
C1516       C  0.97955825  0.50426637  0.63129571     0.35800
C1517       C  0.84762158  0.53500019  0.65030964     0.39200
C1518       C  0.95773302  0.56392134  0.57311226    -0.04300
C1519       C  0.96920723  0.57088519  0.54186750     0.02800
C1520       C  0.96652547  0.54802782  0.51638668    -0.03900
C1521       C  0.95064905  0.51907433  0.52352650    -0.00200
C1522       C  0.94076512  0.51171747  0.55498723    -0.02700
C1523       C  0.96004902  0.58747559  0.59868383     0.36500
C1524       C  0.94127095  0.49739345  0.49842753     0.40100
C1525       C  0.98368883  0.60177123  0.53745170     0.39300
C1526       C  0.92651286  0.48095327  0.56184523     0.36200
C1527       C  0.87836492  0.55205030  0.59196849     0.36900
C1528       C  0.94889485  0.48717213  0.69031404     0.40100
N1529       N  0.99573761  0.62657427  0.53719763    -0.37900
N1530       N  0.96186541  0.60625509  0.61905880    -0.39500
N1531       N  0.93231777  0.47867459  0.48018306    -0.37300
N1532       N  0.91531302  0.45642236  0.56745253    -0.39700
N1533       N  0.00634877  0.49854928  0.62727834    -0.39400
N1534       N  0.96318687  0.47422657  0.71029422    -0.37100
N1535       N  0.82078453  0.54100514  0.65358396    -0.38100
N1536       N  0.86417709  0.56523278  0.57206742    -0.39800
C1537       C  0.67372027  0.46300070  0.86260097    -0.04700
C1538       C  0.69752199  0.48140668  0.87784303     0.09400
C1539       C  0.69015058  0.49745941  0.90676426    -0.02100
C1540       C  0.65918887  0.49525458  0.92019074    -0.00400
C1541       C  0.63598754  0.47447492  0.90646413    -0.04000
C1542       C  0.64385028  0.45846643  0.87740819     0.03100
C1543       C  0.72978741  0.48487164  0.86246006     0.09900
C1544       C  0.71508026  0.51489019  0.92369086     0.35800
C1545       C  0.62195318  0.43618584  0.86272246     0.39200
C1546       C  0.73881762  0.51453525  0.84975552    -0.04300
C1547       C  0.76765385  0.51757147  0.83271429     0.02800
C1548       C  0.78672208  0.49017865  0.82557057    -0.03900
C1549       C  0.77840560  0.46074741  0.83987697    -0.00200
C1550       C  0.75046017  0.45831647  0.85870213    -0.02700
C1551       C  0.71753672  0.54185376  0.85288459     0.36500
C1552       C  0.79845769  0.43276053  0.83547788     0.40100
C1553       C  0.77681823  0.54923519  0.82233960     0.39300
C1554       C  0.74259000  0.42808228  0.87343616     0.36200
C1555       C  0.68023606  0.44803732  0.83176599     0.36900
C1556       C  0.65262659  0.51304712  0.94927649     0.40100
N1557       N  0.78405226  0.57466320  0.81458074    -0.37900
N1558       N  0.70054537  0.56355951  0.85544628    -0.39500
N1559       N  0.81431605  0.41034016  0.83196984    -0.37300
N1560       N  0.73668204  0.40369304  0.88480839    -0.39700
N1561       N  0.73499688  0.52865484  0.93725624    -0.39400
N1562       N  0.64866749  0.52784979  0.97243011    -0.37100
N1563       N  0.60538306  0.41785051  0.85038546    -0.38100
N1564       N  0.68546322  0.43601104  0.80727950    -0.39800
C1565       C  0.72859655  0.47064783  0.66481075    -0.04700
C1566       C  0.70586925  0.49498117  0.66961407     0.09400
C1567       C  0.71257340  0.51977477  0.69164290    -0.02100
C1568       C  0.74260286  0.52138023  0.70732012    -0.00400
C1569       C  0.76639955  0.49787472  0.70134457    -0.04000
C1570       C  0.75877307  0.47211839  0.68019871     0.03100
C1571       C  0.68012410  0.49995906  0.64496543     0.09900
C1572       C  0.68903447  0.54477040  0.69686276     0.35800
C1573       C  0.78238001  0.44787305  0.67237849     0.39200
C1574       C  0.64831108  0.49001577  0.64939604    -0.04300
C1575       C  0.62406241  0.49907253  0.62710385     0.02800
C1576       C  0.63144116  0.51933701  0.60077774    -0.03900
C1577       C  0.66375397  0.52931422  0.59734143    -0.00200
C1578       C  0.68790342  0.51810293  0.61802141    -0.02700
C1579       C  0.64040137  0.47181327  0.67772702     0.36500
C1580       C  0.67333701  0.55385969  0.57538516     0.40100
C1581       C  0.59105095  0.49213263  0.63479691     0.39300
C1582       C  0.72119031  0.52679535  0.61257694     0.36200
C1583       C  0.72151611  0.44513268  0.64220678     0.36900
C1584       C  0.74877938  0.54782891  0.72903134     0.40100
N1585       N  0.56487413  0.48699785  0.64197944    -0.37900
N1586       N  0.63408351  0.45733227  0.70038785    -0.39500
N1587       N  0.68503561  0.57421514  0.56110453    -0.37300
N1588       N  0.74764350  0.53355119  0.60830275    -0.39700
N1589       N  0.67050507  0.56486437  0.70125998    -0.39400
N1590       N  0.75346268  0.56926255  0.74599911    -0.37100
N1591       N  0.80110489  0.42848978  0.66599400    -0.38100
N1592       N  0.71584651  0.42486810  0.62411254    -0.39800
loop_ 
_geom_bond_atom_site_label_1 
_geom_bond_atom_site_label_2 
_geom_bond_distance 
_geom_bond_site_symmetry_2 
_ccdc_geom_bond_type 
O1            V9   1.924       .  S
O1           C11   1.270       .  A
O2            V9   1.917       .  S
O2           C12   1.270       .  A
O3            V9   1.883       .  S
O3           C13   1.260       .  A
O4            V9   1.887       .  S
O4           C14   1.262       .  A
O5           V10   1.919       .  S
O5           C14   1.270       .  A
O6           V10   1.917       .  S
O6           C13   1.271       .  A
O7           V10   1.882       .  S
O7           C12   1.259       .  A
O8           V10   1.890       .  S
O8           C11   1.260       .  A
V9           V10   2.079       .  T
C11        C1513   1.491       .  S
C12        C1548   1.506       .  S
C13        C1569   1.504       .  S
C14        C1485   1.509       .  S
O15          V23   1.909       .  S
O15          C25   1.267       .  A
O16          V23   1.901       .  S
O16          C26   1.266       .  A
O17          V23   1.886       .  S
O17          C27   1.261       .  A
O18          V23   1.891       .  S
O18          C28   1.263       .  A
O19          V24   1.921       .  S
O19          C28   1.271       .  A
O20          V24   1.915       .  S
O20          C27   1.269       .  A
O21          V24   1.889       .  S
O21          C26   1.261       .  A
O22          V24   1.891       .  S
O22          C25   1.263       .  A
V23          V24   2.081       .  T
C25        C1373   1.504       .  S
C26        C1457   1.481       .  S
C27        C1436   1.497       .  S
C28        C1401   1.510       .  S
O29          V37   1.914       .  S
O29          C39   1.269       .  A
O30          V37   1.909       .  S
O30          C40   1.269       .  A
O31          V37   1.882       .  S
O31          C41   1.260       .  A
O32          V37   1.890       .  S
O32          C42   1.261       .  A
O33          V38   1.918       .  S
O33          C42   1.270       .  A
O34          V38   1.911       .  S
O34          C41   1.269       .  A
O35          V38   1.887       .  S
O35          C40   1.261       .  A
O36          V38   1.891       .  S
O36          C39   1.262       .  A
V37          V38   2.081       .  T
C39        C1261   1.512       .  S
C40        C1317   1.493       .  S
C41        C1345   1.501       .  S
C42        C1289   1.496       .  S
C43          H44   1.104       .  S
C43          C49   1.543       .  S
C43          C48   1.542       .  S
C43          C47   1.544       .  S
C45          H46   1.104       .  S
C45          C51   1.557       .  S
C45          C50   1.555       .  S
C45          C52   1.557       .  S
C47          C50   1.384       .  D
C47        C1541   1.514       .  S
C48          C51   1.382       .  D
C48        C1177   1.520       .  S
C49          C52   1.381       .  D
C49        C1149   1.516       .  S
C50        C1408   1.523       .  S
C51        C1233   1.517       .  S
C52        C1205   1.522   1_556  S
C53          H54   1.106       .  S
C53          C59   1.555       .  S
C53          C58   1.561       .  S
C53          C57   1.552       .  S
C55          H56   1.107       .  S
C55          C61   1.544       .  S
C55          C60   1.543       .  S
C55          C62   1.544       .  S
C57          C60   1.380       .  D
C57        C1128   1.511       .  S
C58          C61   1.395       .  D
C58        C1093   1.530       .  S
C59          C62   1.386       .  D
C59        C1065   1.527       .  S
C60        C1576   1.518       .  S
C61        C1324   1.523       .  S
C62        C1464   1.511       .  S
C63          H64   1.105       .  S
C63          C69   1.532       .  S
C63          C68   1.551       .  S
C63          C67   1.545       .  S
C65          H66   1.094       .  S
C65          C71   1.534       .  S
C65          C70   1.574       .  S
C65          C72   1.575       .  S
C67          C70   1.391       .  D
C67        C1016   1.534       .  S
C68          C71   1.365       .  D
C68        C1429   1.509       .  S
C69          C72   1.396       .  D
C69         C981   1.496       .  S
C70        C1044   1.540   1_565  S
C71        C1296   1.503       .  S
C72         C960   1.545       .  S
O73          V81   1.914       .  S
O73          C83   1.270       .  A
O74          V81   1.919       .  S
O74          C84   1.270       .  A
O75          V81   1.879       .  S
O75          C85   1.258       .  A
O76          V81   1.885       .  S
O76          C86   1.259       .  A
O77          V82   1.924       .  S
O77          C86   1.272       .  A
O78          V82   1.916       .  S
O78          C85   1.270       .  A
O79          V82   1.889       .  S
O79          C84   1.260       .  A
O80          V82   1.892       .  S
O80          C83   1.262       .  A
V81          V82   2.084       .  T
C83        C1037   1.504       .  S
C84        C1184   1.487       .  S
C85         C925   1.484       .  S
C86        C1121   1.501       .  S
C87          H88   1.104       .  S
C87          C93   1.544       .  S
C87          C92   1.547       .  S
C87          C91   1.545       .  S
C89          H90   1.104       .  S
C89          C95   1.549       .  S
C89          C94   1.555       .  S
C89          C96   1.553       .  S
C91          C94   1.383       .  D
C91         C932   1.520       .  S
C92          C95   1.379       .  D
C92         C869   1.512       .  S
C93          C96   1.383       .  D
C93         C841   1.522       .  S
C94         C904   1.516       .  S
C95         C820   1.520   1_556  S
C96        C1380   1.511   1_545  S
O97         V105   1.915   1_554  S
O97         C107   1.270       .  A
O98         V105   1.911       .  S
O98         C108   1.269   1_556  A
O99         V105   1.877       .  S
O99         C109   1.257   1_556  A
O100        V105   1.879       .  S
O100        C110   1.259   1_556  A
O101        V106   1.924       .  S
O101        C110   1.272       .  A
O102        V106   1.929       .  S
O102        C109   1.272       .  A
O103        V106   1.878       .  S
O103        C108   1.257       .  A
O104        V106   1.883       .  S
O104        C107   1.259       .  A
V105        V106   2.083   1_556  T
C107        C764   1.501       .  S
C108       C1156   1.478       .  S
C109        C792   1.489       .  S
C110        C897   1.507       .  S
O111        V119   1.907       .  S
O111        C121   1.267   1_545  A
O112        V119   1.905       .  S
O112        C122   1.267   1_545  A
O113        V119   1.891       .  S
O113        C123   1.262   1_545  A
O114        V119   1.893       .  S
O114        C124   1.262   1_545  A
O115        V120   1.915       .  S
O115        C124   1.269       .  A
O116        V120   1.911       .  S
O116        C123   1.268       .  A
O117        V120   1.888       .  S
O117        C122   1.261       .  A
O118        V120   1.893       .  S
O118        C121   1.263       .  A
V119        V120   2.084   1_545  T
C121        C736   1.508       .  S
C122        C848   1.484       .  S
C123       C1009   1.492       .  S
C124        C708   1.494   1_565  S
O125        V133   1.912       .  S
O125        C135   1.269       .  A
O126        V133   1.917   1_655  S
O126        C136   1.269   1_655  A
O127        V133   1.878       .  S
O127        C137   1.258       .  A
O128        V133   1.880   1_655  S
O128        C138   1.258   1_655  A
O129        V134   1.924       .  S
O129        C138   1.272       .  A
O130        V134   1.917       .  S
O130        C137   1.271       .  A
O131        V134   1.884       .  S
O131        C136   1.258       .  A
O132        V134   1.888       .  S
O132        C135   1.262       .  A
V133        V134   2.081       .  T
C135        C589   1.507       .  S
C136        C645   1.480       .  S
C137        C680   1.489       .  S
C138        C617   1.509       .  S
O139        V147   1.911       .  S
O139        C149   1.269       .  A
O140        V147   1.911       .  S
O140        C150   1.267       .  A
O141        V147   1.892       .  S
O141        C151   1.262       .  A
O142        V147   1.904       .  S
O142        C152   1.263       .  A
O143        V148   1.905       .  S
O143        C152   1.266       .  A
O144        V148   1.911       .  S
O144        C151   1.268       .  A
O145        V148   1.873       .  S
O145        C150   1.259       .  A
O146        V148   1.884       .  S
O146        C149   1.260       .  A
V147        V148   2.085       .  T
C149        C533   1.494       .  S
C150        C988   1.485       .  S
C151        C561   1.494       .  S
C152       C1072   1.486       .  S
O153        V161   1.914       .  S
O153        C163   1.268       .  A
O154        V161   1.910       .  S
O154        C164   1.268       .  A
O155        V161   1.882       .  S
O155        C165   1.260       .  A
O156        V161   1.892       .  S
O156        C166   1.262       .  A
O157        V162   1.921       .  S
O157        C166   1.271       .  A
O158        V162   1.920       .  S
O158        C165   1.270       .  A
O159        V162   1.892       .  S
O159        C164   1.261       .  A
O160        V162   1.899       .  S
O160        C163   1.262       .  A
V161        V162   2.084       .  T
C163       C1100   1.489       .  S
C164        C512   1.487       .  S
C165        C477   1.491       .  S
C166       C1212   1.514       .  S
C167        H168   1.102       .  S
C167        C173   1.525       .  S
C167        C172   1.547       .  S
C167        C171   1.550       .  S
C169        H170   1.104       .  S
C169        C175   1.558       .  S
C169        C174   1.563   1_455  S
C169        C176   1.571   1_455  S
C171        C174   1.394       .  D
C171        C484   1.524       .  S
C172        C175   1.405   1_655  D
C172        C652   1.554   1_655  S
C173        C176   1.362       .  D
C173       C1352   1.491       .  S
C174        C449   1.541       .  S
C175        C540   1.506       .  S
C176       C1520   1.530       .  S
C177        H178   1.106       .  S
C177        C183   1.547       .  S
C177        C182   1.543       .  S
C177        C181   1.547       .  S
C179        H180   1.105       .  S
C179        C185   1.549       .  S
C179        C184   1.549       .  S
C179        C186   1.549       .  S
C181        C184   1.383       .  D
C181        C673   1.515       .  S
C182        C185   1.380       .  D
C182        C568   1.517       .  S
C183        C186   1.382       .  D
C183        C421   1.519       .  S
C184       C1268   1.514       .  S
C185        C729   1.511       .  S
C186        C393   1.511   1_565  S
C187        H188   1.098       .  S
C187        C193   1.534       .  S
C187        C192   1.541       .  S
C187        C191   1.553       .  S
C189        H190   1.098   1_655  S
C189        C195   1.565   1_655  S
C189        C194   1.541       .  S
C189        C196   1.555       .  S
C191        C194   1.394       .  D
C191        C505   1.540       .  S
C192        C195   1.394   1_655  D
C192        C365   1.499   1_655  S
C193        C196   1.379       .  D
C193        C785   1.519       .  S
C194        C624   1.507       .  S
C195        C337   1.544       .  S
C196       C1492   1.519   1_554  S
O197        V205   1.914       .  S
O197        C207   1.268       .  A
O198        V205   1.907       .  S
O198        C208   1.267       .  A
O199        V205   1.888       .  S
O199        C209   1.260       .  A
O200        V205   1.895       .  S
O200        C210   1.264       .  A
O201        V206   1.916       .  S
O201        C210   1.270   1_565  A
O202        V206   1.913       .  S
O202        C209   1.268   1_565  A
O203        V206   1.883       .  S
O203        C208   1.259   1_565  A
O204        V206   1.884       .  S
O204        C207   1.261   1_565  A
V205        V206   2.083   1_545  T
C207        C953   1.486       .  S
C208        C309   1.480       .  S
C209        C428   1.484       .  S
C210        C813   1.517       .  S
C211        H212   1.101       .  S
C211        C217   1.553       .  S
C211        C216   1.537       .  S
C211        C215   1.536       .  S
C213        H214   1.099       .  S
C213        C219   1.554       .  S
C213        C218   1.568       .  S
C213        C220   1.533       .  S
C215        C218   1.393       .  D
C215        C253   1.500       .  S
C216        C219   1.379       .  D
C216        C316   1.516       .  S
C217        C220   1.389       .  D
C217        C281   1.532       .  S
C218        C701   1.541   1_554  S
C219        C596   1.523   1_545  S
C220        C757   1.500       .  S
O221        V229   1.912       .  S
O221        C231   1.268   1_655  A
O222        V229   1.908       .  S
O222        C232   1.268   1_655  A
O223        V229   1.897       .  S
O223        C233   1.262   1_655  A
O224        V229   1.896       .  S
O224        C234   1.265   1_655  A
O225        V230   1.905       .  S
O225        C234   1.265       .  A
O226        V230   1.899       .  S
O226        C233   1.265       .  A
O227        V230   1.893       .  S
O227        C232   1.263       .  A
O228        V230   1.889       .  S
O228        C231   1.263       .  A
V229        V230   2.081   1_655  T
C231        C400   1.501       .  S
C232        C372   1.511       .  S
C233        C288   1.483       .  S
C234        C456   1.496       .  S
O235        V243   1.911       .  S
O235        C245   1.267       .  A
O236        V243   1.906       .  S
O236        C246   1.266       .  A
O237        V243   1.895       .  S
O237        C247   1.263       .  A
O238        V243   1.901       .  S
O238        C248   1.266       .  A
O239        V244   1.911       .  S
O239        C248   1.268   1_554  A
O240        V244   1.903       .  S
O240        C247   1.267   1_554  A
O241        V244   1.892       .  S
O241        C246   1.261   1_554  A
O242        V244   1.892       .  S
O242        C245   1.262   1_554  A
V243        V244   2.083   1_556  T
C245        C344   1.490       .  S
C246        C876   1.482       .  S
C247        C260   1.506   1_556  S
C248       C1240   1.512       .  S
C249        C250   1.406       .  A
C249        C254   1.410       .  A
C249        C267   1.454       .  S
C250        C255   1.500       .  S
C250        C251   1.411       .  A
C251        C252   1.415       .  A
C251        C256   1.450       .  S
C252        C253   1.415       .  A
C252        C268   1.446       .  S
C253        C254   1.421       .  A
C254        C257   1.448       .  S
C255        C258   1.410       .  A
C255        C262   1.407   1_554  A
C256        N273   1.157       .  T
C257        N275   1.157       .  T
C258        C259   1.411       .  A
C258        C263   1.451       .  S
C259        C260   1.421       .  A
C259        C265   1.452       .  S
C260        C261   1.427   1_554  A
C261        C262   1.413       .  A
C261        C264   1.451       .  S
C262        C266   1.452       .  S
C263        N270   1.157       .  T
C264        N271   1.158       .  T
C265        N269   1.158       .  T
C266        N272   1.157       .  T
C267        N276   1.157       .  T
C268        N274   1.156       .  T
C277        C278   1.400       .  A
C277        C282   1.416       .  A
C277        C295   1.453   1_455  S
C278        C283   1.497       .  S
C278        C279   1.402       .  A
C279        C280   1.413       .  A
C279        C284   1.456       .  S
C280        C281   1.433       .  A
C280        C296   1.443       .  S
C281        C282   1.431       .  A
C282        C285   1.444       .  S
C283        C286   1.414       .  A
C283        C290   1.409   1_455  A
C284        N301   1.157       .  T
C285        N303   1.156       .  T
C286        C287   1.409       .  A
C286        C291   1.450       .  S
C287        C288   1.410       .  A
C287        C293   1.452       .  S
C288        C289   1.417   1_455  A
C289        C290   1.411       .  A
C289        C292   1.451       .  S
C290        C294   1.451       .  S
C291        N298   1.157       .  T
C292        N299   1.157       .  T
C293        N297   1.157       .  T
C294        N300   1.157       .  T
C295        N304   1.157       .  T
C296        N302   1.157       .  T
C305        C306   1.408   1_565  A
C305        C310   1.407       .  A
C305        C323   1.452       .  S
C306        C311   1.490       .  S
C306        C307   1.411       .  A
C307        C308   1.410       .  A
C307        C312   1.450       .  S
C308        C309   1.412       .  A
C308        C324   1.451       .  S
C309        C310   1.418   1_545  A
C310        C313   1.453       .  S
C311        C314   1.402       .  A
C311        C318   1.404       .  A
C312        N329   1.157       .  T
C313        N331   1.158       .  T
C314        C315   1.406       .  A
C314        C319   1.455       .  S
C315        C316   1.426       .  A
C315        C321   1.447       .  S
C316        C317   1.425       .  A
C317        C318   1.413       .  A
C317        C320   1.447   1_545  S
C318        C322   1.451   1_545  S
C319        N326   1.157       .  T
C320        N327   1.157       .  T
C321        N325   1.155       .  T
C322        N328   1.157       .  T
C323        N332   1.157       .  T
C324        N330   1.157       .  T
C333        C334   1.410       .  A
C333        C338   1.418       .  A
C333        C351   1.451   1_554  S
C334        C339   1.503       .  S
C334        C335   1.408       .  A
C335        C336   1.408       .  A
C335        C340   1.452       .  S
C336        C337   1.417       .  A
C336        C352   1.445       .  S
C337        C338   1.426       .  A
C338        C341   1.448       .  S
C339        C342   1.414       .  A
C339        C346   1.412   1_554  A
C340        N357   1.157       .  T
C341        N359   1.158       .  T
C342        C343   1.411       .  A
C342        C347   1.451       .  S
C343        C344   1.413   1_554  A
C343        C349   1.451       .  S
C344        C345   1.417       .  A
C345        C346   1.414       .  A
C345        C348   1.451       .  S
C346        C350   1.451       .  S
C347        N354   1.157       .  T
C348        N355   1.158       .  T
C349        N353   1.157       .  T
C350        N356   1.157       .  T
C351        N360   1.157       .  T
C352        N358   1.157       .  T
C361        C362   1.406       .  A
C361        C366   1.409       .  A
C361        C379   1.454       .  S
C362        C367   1.498       .  S
C362        C363   1.410       .  A
C363        C364   1.415       .  A
C363        C368   1.450       .  S
C364        C365   1.416       .  A
C364        C380   1.447       .  S
C365        C366   1.421       .  A
C366        C369   1.448   1_455  S
C367        C370   1.409   1_455  A
C367        C374   1.405       .  A
C368        N385   1.157       .  T
C369        N387   1.158       .  T
C370        C371   1.413       .  A
C370        C375   1.452       .  S
C371        C372   1.424   1_655  A
C371        C377   1.451       .  S
C372        C373   1.429       .  A
C373        C374   1.412       .  A
C373        C376   1.451       .  S
C374        C378   1.452       .  S
C375        N382   1.157       .  T
C376        N383   1.158       .  T
C377        N381   1.158       .  T
C378        N384   1.157       .  T
C379        N388   1.157       .  T
C380        N386   1.156       .  T
C389        C390   1.407       .  A
C389        C394   1.409       .  A
C389        C407   1.454       .  S
C390        C395   1.499       .  S
C390        C391   1.407       .  A
C391        C392   1.416       .  A
C391        C396   1.450       .  S
C392        C393   1.424       .  A
C392        C408   1.449       .  S
C393        C394   1.422       .  A
C394        C397   1.447       .  S
C395        C398   1.410       .  A
C395        C402   1.407       .  A
C396        N413   1.157       .  T
C397        N415   1.156   1_545  T
C398        C399   1.414       .  A
C398        C403   1.451   1_455  S
C399        C400   1.420       .  A
C399        C405   1.450   1_455  S
C400        C401   1.421       .  A
C401        C402   1.410       .  A
C401        C404   1.451       .  S
C402        C406   1.451       .  S
C403        N410   1.157       .  T
C404        N411   1.157       .  T
C405        N409   1.158       .  T
C406        N412   1.157       .  T
C407        N416   1.157       .  T
C408        N414   1.157       .  T
C417        C418   1.406   1_565  A
C417        C422   1.410       .  A
C417        C435   1.454       .  S
C418        C423   1.500       .  S
C418        C419   1.407       .  A
C419        C420   1.418       .  A
C419        C424   1.451       .  S
C420        C421   1.426   1_545  A
C420        C436   1.446       .  S
C421        C422   1.421       .  A
C422        C425   1.442       .  S
C423        C426   1.410       .  A
C423        C430   1.415   1_545  A
C424        N441   1.157       .  T
C425        N443   1.154       .  T
C426        C427   1.410       .  A
C426        C431   1.451       .  S
C427        C428   1.416       .  A
C427        C433   1.452       .  S
C428        C429   1.410   1_545  A
C429        C430   1.412       .  A
C429        C432   1.451       .  S
C430        C434   1.448       .  S
C431        N438   1.157       .  T
C432        N439   1.157       .  T
C433        N437   1.157       .  T
C434        N440   1.157       .  T
C435        N444   1.157       .  T
C436        N442   1.157       .  T
C445        C446   1.401       .  A
C445        C450   1.410       .  A
C445        C463   1.457       .  S
C446        C451   1.502       .  S
C446        C447   1.403       .  A
C447        C448   1.420       .  A
C447        C452   1.453       .  S
C448        C449   1.439   1_455  A
C448        C464   1.447       .  S
C449        C450   1.431   1_655  A
C450        C453   1.441   1_455  S
C451        C454   1.412       .  A
C451        C458   1.409       .  A
C452        N469   1.157       .  T
C453        N471   1.156   1_655  T
C454        C455   1.412       .  A
C454        C459   1.451       .  S
C455        C456   1.418       .  A
C455        C461   1.451       .  S
C456        C457   1.418       .  A
C457        C458   1.411       .  A
C457        C460   1.451   1_455  S
C458        C462   1.450   1_455  S
C459        N466   1.157       .  T
C460        N467   1.157       .  T
C461        N465   1.158       .  T
C462        N468   1.157       .  T
C463        N472   1.157   1_455  T
C464        N470   1.158       .  T
C473        C474   1.413       .  A
C473        C478   1.415       .  A
C473        C491   1.449       .  S
C474        C479   1.498       .  S
C474        C475   1.408       .  A
C475        C476   1.408       .  A
C475        C480   1.452       .  S
C476        C477   1.420       .  A
C476        C492   1.453       .  S
C477        C478   1.413       .  A
C478        C481   1.449       .  S
C479        C482   1.412       .  A
C479        C486   1.404       .  A
C480        N497   1.157       .  T
C481        N499   1.157       .  T
C482        C483   1.417       .  A
C482        C487   1.451       .  S
C483        C484   1.417       .  A
C483        C489   1.442       .  S
C484        C485   1.418       .  A
C485        C486   1.406       .  A
C485        C488   1.442       .  S
C486        C490   1.452       .  S
C487        N494   1.157       .  T
C488        N495   1.155       .  T
C489        N493   1.158       .  T
C490        N496   1.157       .  T
C491        N500   1.157       .  T
C492        N498   1.157       .  T
C501        C502   1.401       .  A
C501        C506   1.421       .  A
C501        C519   1.452       .  S
C502        C507   1.502       .  S
C502        C503   1.399       .  A
C503        C504   1.413       .  A
C503        C508   1.457       .  S
C504        C505   1.439       .  A
C504        C520   1.443       .  S
C505        C506   1.434       .  A
C506        C509   1.444       .  S
C507        C510   1.416       .  A
C507        C514   1.409       .  A
C508        N525   1.157       .  T
C509        N527   1.156       .  T
C510        C511   1.413       .  A
C510        C515   1.448       .  S
C511        C512   1.409       .  A
C511        C517   1.451       .  S
C512        C513   1.418       .  A
C513        C514   1.411       .  A
C513        C516   1.451       .  S
C514        C518   1.451       .  S
C515        N522   1.157       .  T
C516        N523   1.157       .  T
C517        N521   1.157       .  T
C518        N524   1.157       .  T
C519        N528   1.157       .  T
C520        N526   1.157       .  T
C529        C530   1.416       .  A
C529        C534   1.413       .  A
C529        C547   1.451       .  S
C530        C535   1.504       .  S
C530        C531   1.411       .  A
C531        C532   1.408       .  A
C531        C536   1.449       .  S
C532        C533   1.420       .  A
C532        C548   1.452       .  S
C533        C534   1.414       .  A
C534        C537   1.449       .  S
C535        C538   1.409       .  A
C535        C542   1.415       .  A
C536        N553   1.156       .  T
C537        N555   1.157       .  T
C538        C539   1.402       .  A
C538        C543   1.454       .  S
C539        C540   1.415       .  A
C539        C545   1.441       .  S
C540        C541   1.418       .  A
C541        C542   1.419       .  A
C541        C544   1.445       .  S
C542        C546   1.450       .  S
C543        N550   1.157       .  T
C544        N551   1.156       .  T
C545        N549   1.155       .  T
C546        N552   1.157       .  T
C547        N556   1.157       .  T
C548        N554   1.157       .  T
C557        C558   1.415       .  A
C557        C562   1.414       .  A
C557        C575   1.450       .  S
C558        C563   1.502       .  S
C558        C559   1.408       .  A
C559        C560   1.410       .  A
C559        C564   1.452       .  S
C560        C561   1.423       .  A
C560        C576   1.452       .  S
C561        C562   1.413       .  A
C562        C565   1.449       .  S
C563        C566   1.409       .  A
C563        C570   1.405       .  A
C564        N581   1.157       .  T
C565        N583   1.157       .  T
C566        C567   1.415       .  A
C566        C571   1.452       .  S
C567        C568   1.423       .  A
C567        C573   1.447       .  S
C568        C569   1.422       .  A
C569        C570   1.412       .  A
C569        C572   1.442       .  S
C570        C574   1.452       .  S
C571        N578   1.157       .  T
C572        N579   1.154       .  T
C573        N577   1.157       .  T
C574        N580   1.157       .  T
C575        N584   1.157       .  T
C576        N582   1.157       .  T
C585        C586   1.411       .  A
C585        C590   1.414       .  A
C585        C603   1.450   1_455  S
C586        C591   1.503       .  S
C586        C587   1.409       .  A
C587        C588   1.412       .  A
C587        C592   1.452       .  S
C588        C589   1.424       .  A
C588        C604   1.452       .  S
C589        C590   1.420       .  A
C590        C593   1.451   1_455  S
C591        C594   1.406       .  A
C591        C598   1.406       .  A
C592        N609   1.157       .  T
C593        N611   1.158       .  T
C594        C595   1.415       .  A
C594        C599   1.454       .  S
C595        C596   1.428       .  A
C595        C601   1.446       .  S
C596        C597   1.423       .  A
C597        C598   1.415       .  A
C597        C600   1.446       .  S
C598        C602   1.451       .  S
C599        N606   1.157       .  T
C600        N607   1.156   1_554  T
C601        N605   1.157   1_565  T
C602        N608   1.157       .  T
C603        N612   1.157       .  T
C604        N610   1.158       .  T
C613        C614   1.404   1_655  A
C613        C618   1.410       .  A
C613        C631   1.454       .  S
C614        C619   1.497   1_455  S
C614        C615   1.410       .  A
C615        C616   1.416       .  A
C615        C620   1.450       .  S
C616        C617   1.420       .  A
C616        C632   1.450       .  S
C617        C618   1.431   1_455  A
C618        C621   1.452       .  S
C619        C622   1.411       .  A
C619        C626   1.407   1_655  A
C620        N637   1.157       .  T
C621        N639   1.158       .  T
C622        C623   1.417       .  A
C622        C627   1.448       .  S
C623        C624   1.417       .  A
C623        C629   1.447       .  S
C624        C625   1.411   1_655  A
C625        C626   1.404       .  A
C625        C628   1.444       .  S
C626        C630   1.451       .  S
C627        N634   1.157       .  T
C628        N635   1.157       .  T
C629        N633   1.157   1_554  T
C630        N636   1.157       .  T
C631        N640   1.157       .  T
C632        N638   1.157       .  T
C641        C642   1.416       .  A
C641        C646   1.414       .  A
C641        C659   1.448   1_455  S
C642        C647   1.501       .  S
C642        C643   1.412       .  A
C643        C644   1.408       .  A
C643        C648   1.453       .  S
C644        C645   1.414       .  A
C644        C660   1.451       .  S
C645        C646   1.408       .  A
C646        C649   1.451   1_455  S
C647        C650   1.409       .  A
C647        C654   1.405   1_455  A
C648        N665   1.157       .  T
C649        N667   1.157       .  T
C650        C651   1.413       .  A
C650        C655   1.447       .  S
C651        C652   1.414       .  A
C651        C657   1.443       .  S
C652        C653   1.437   1_455  A
C653        C654   1.415       .  A
C653        C656   1.445       .  S
C654        C658   1.454       .  S
C655        N662   1.157       .  T
C656        N663   1.156       .  T
C657        N661   1.157       .  T
C658        N664   1.157       .  T
C659        N668   1.157       .  T
C660        N666   1.157       .  T
C669        C670   1.407       .  A
C669        C674   1.416       .  A
C669        C687   1.451       .  S
C670        C675   1.496       .  S
C670        C671   1.404       .  A
C671        C672   1.410       .  A
C671        C676   1.454       .  S
C672        C673   1.422       .  A
C672        C688   1.443       .  S
C673        C674   1.424       .  A
C674        C677   1.446       .  S
C675        C678   1.414       .  A
C675        C682   1.407       .  A
C676        N693   1.157       .  T
C677        N695   1.157   1_455  T
C678        C679   1.413       .  A
C678        C683   1.449       .  S
C679        C680   1.412       .  A
C679        C685   1.451       .  S
C680        C681   1.421       .  A
C681        C682   1.407       .  A
C681        C684   1.453   1_455  S
C682        C686   1.453   1_455  S
C683        N690   1.157       .  T
C684        N691   1.157       .  T
C685        N689   1.157       .  T
C686        N692   1.157       .  T
C687        N696   1.157   1_455  T
C688        N694   1.154       .  T
C697        C698   1.410       .  A
C697        C702   1.420       .  A
C697        C715   1.450   1_545  S
C698        C703   1.500       .  S
C698        C699   1.407       .  A
C699        C700   1.405       .  A
C699        C704   1.450       .  S
C700        C701   1.414       .  A
C700        C716   1.445       .  S
C701        C702   1.424       .  A
C702        C705   1.448       .  S
C703        C706   1.411       .  A
C703        C710   1.410   1_545  A
C704        N721   1.157       .  T
C705        N723   1.158       .  T
C706        C707   1.412       .  A
C706        C711   1.451       .  S
C707        C708   1.417       .  A
C707        C713   1.451       .  S
C708        C709   1.418   1_545  A
C709        C710   1.415       .  A
C709        C712   1.450       .  S
C710        C714   1.450       .  S
C711        N718   1.157       .  T
C712        N719   1.157       .  T
C713        N717   1.157       .  T
C714        N720   1.157       .  T
C715        N724   1.157       .  T
C716        N722   1.158       .  T
C725        C726   1.407       .  A
C725        C730   1.409       .  A
C725        C743   1.454       .  S
C726        C731   1.498       .  S
C726        C727   1.407       .  A
C727        C728   1.415       .  A
C727        C732   1.451       .  S
C728        C729   1.423       .  A
C728        C744   1.448       .  S
C729        C730   1.421       .  A
C730        C733   1.448       .  S
C731        C734   1.409   1_565  A
C731        C738   1.407       .  A
C732        N749   1.157       .  T
C733        N751   1.156       .  T
C734        C735   1.412       .  A
C734        C739   1.451       .  S
C735        C736   1.422   1_545  A
C735        C741   1.450       .  S
C736        C737   1.425       .  A
C737        C738   1.412       .  A
C737        C740   1.451       .  S
C738        C742   1.451       .  S
C739        N746   1.157       .  T
C740        N747   1.158       .  T
C741        N745   1.157       .  T
C742        N748   1.157       .  T
C743        N752   1.157       .  T
C744        N750   1.156       .  T
C753        C754   1.411       .  A
C753        C758   1.415       .  A
C753        C771   1.448       .  S
C754        C759   1.491       .  S
C754        C755   1.408       .  A
C755        C756   1.401       .  A
C755        C760   1.452       .  S
C756        C757   1.407   1_655  A
C756        C772   1.444   1_655  S
C757        C758   1.413   1_455  A
C758        C761   1.446       .  S
C759        C762   1.404       .  A
C759        C766   1.409       .  A
C760        N777   1.157       .  T
C761        N779   1.156   1_645  T
C762        C763   1.410       .  A
C762        C767   1.453       .  S
C763        C764   1.428       .  A
C763        C769   1.452       .  S
C764        C765   1.418       .  A
C765        C766   1.412       .  A
C765        C768   1.450   1_554  S
C766        C770   1.451   1_554  S
C767        N774   1.157       .  T
C768        N775   1.157       .  T
C769        N773   1.158       .  T
C770        N776   1.157       .  T
C771        N780   1.157       .  T
C772        N778   1.157   1_554  T
C781        C782   1.409       .  A
C781        C786   1.420       .  A
C781        C799   1.450   1_554  S
C782        C787   1.499       .  S
C782        C783   1.402       .  A
C783        C784   1.407       .  A
C783        C788   1.455       .  S
C784        C785   1.423       .  A
C784        C800   1.441       .  S
C785        C786   1.422       .  A
C786        C789   1.446   1_554  S
C787        C790   1.414       .  A
C787        C794   1.407       .  A
C788        N805   1.157       .  T
C789        N807   1.157       .  T
C790        C791   1.417       .  A
C790        C795   1.450       .  S
C791        C792   1.412       .  A
C791        C797   1.449       .  S
C792        C793   1.420       .  A
C793        C794   1.407       .  A
C793        C796   1.453   1_554  S
C794        C798   1.452   1_554  S
C795        N802   1.157       .  T
C796        N803   1.157       .  T
C797        N801   1.157       .  T
C798        N804   1.157       .  T
C799        N808   1.157       .  T
C800        N806   1.154       .  T
C809        C810   1.407       .  A
C809        C814   1.415       .  A
C809        C827   1.452       .  S
C810        C815   1.506       .  S
C810        C811   1.410   1_545  A
C811        C812   1.417       .  A
C811        C816   1.451       .  S
C812        C813   1.425   1_565  A
C812        C828   1.450       .  S
C813        C814   1.428       .  A
C814        C817   1.451       .  S
C815        C818   1.409       .  A
C815        C822   1.406       .  A
C816        N833   1.157       .  T
C817        N835   1.158       .  T
C818        C819   1.419       .  A
C818        C823   1.450       .  S
C819        C820   1.423       .  A
C819        C825   1.448       .  S
C820        C821   1.423       .  A
C821        C822   1.412       .  A
C821        C824   1.446       .  S
C822        C826   1.454       .  S
C823        N830   1.157       .  T
C824        N831   1.156   1_554  T
C825        N829   1.157       .  T
C826        N832   1.157       .  T
C827        N836   1.157       .  T
C828        N834   1.158       .  T
C837        C838   1.403       .  A
C837        C842   1.411       .  A
C837        C855   1.454       .  S
C838        C843   1.499       .  S
C838        C839   1.407   1_545  A
C839        C840   1.418       .  A
C839        C844   1.451       .  S
C840        C841   1.426   1_565  A
C840        C856   1.446       .  S
C841        C842   1.424       .  A
C842        C845   1.441       .  S
C843        C846   1.410   1_545  A
C843        C850   1.414       .  A
C844        N861   1.157       .  T
C845        N863   1.154       .  T
C846        C847   1.411       .  A
C846        C851   1.451       .  S
C847        C848   1.417       .  A
C847        C853   1.452       .  S
C848        C849   1.410   1_565  A
C849        C850   1.409       .  A
C849        C852   1.453       .  S
C850        C854   1.448       .  S
C851        N858   1.157       .  T
C852        N859   1.157       .  T
C853        N857   1.158       .  T
C854        N860   1.157       .  T
C855        N864   1.157       .  T
C856        N862   1.157       .  T
C865        C866   1.408   1_554  A
C865        C870   1.416   1_554  A
C865        C883   1.451       .  S
C866        C871   1.500       .  S
C866        C867   1.409       .  A
C867        C868   1.411       .  A
C867        C872   1.452       .  S
C868        C869   1.418       .  A
C868        C884   1.443       .  S
C869        C870   1.423       .  A
C870        C873   1.447   1_556  S
C871        C874   1.417       .  A
C871        C878   1.411   1_556  A
C872        N889   1.157       .  T
C873        N891   1.157       .  T
C874        C875   1.412       .  A
C874        C879   1.449       .  S
C875        C876   1.408       .  A
C875        C881   1.452       .  S
C876        C877   1.416   1_556  A
C877        C878   1.409       .  A
C877        C880   1.452       .  S
C878        C882   1.452       .  S
C879        N886   1.157       .  T
C880        N887   1.157       .  T
C881        N885   1.157       .  T
C882        N888   1.157       .  T
C883        N892   1.157       .  T
C884        N890   1.154       .  T
C893        C894   1.413   1_554  A
C893        C898   1.415       .  A
C893        C911   1.451       .  S
C894        C899   1.505       .  S
C894        C895   1.407       .  A
C895        C896   1.412       .  A
C895        C900   1.452       .  S
C896        C897   1.427   1_556  A
C896        C912   1.452       .  S
C897        C898   1.420       .  A
C898        C901   1.450       .  S
C899        C902   1.407       .  A
C899        C906   1.410       .  A
C900        N917   1.157       .  T
C901        N919   1.157       .  T
C902        C903   1.410       .  A
C902        C907   1.454       .  S
C903        C904   1.424       .  A
C903        C909   1.447       .  S
C904        C905   1.424       .  A
C905        C906   1.417       .  A
C905        C908   1.450       .  S
C906        C910   1.450       .  S
C907        N914   1.157       .  T
C908        N915   1.157   1_545  T
C909        N913   1.157       .  T
C910        N916   1.157       .  T
C911        N920   1.157       .  T
C912        N918   1.157       .  T
C921        C922   1.416       .  A
C921        C926   1.413       .  A
C921        C939   1.448       .  S
C922        C927   1.498       .  S
C922        C923   1.408       .  A
C923        C924   1.407       .  A
C923        C928   1.452       .  S
C924        C925   1.419       .  A
C924        C940   1.453       .  S
C925        C926   1.410       .  A
C926        C929   1.451       .  S
C927        C930   1.406       .  A
C927        C934   1.404       .  A
C928        N945   1.157       .  T
C929        N947   1.157       .  T
C930        C931   1.417       .  A
C930        C935   1.451       .  S
C931        C932   1.426       .  A
C931        C937   1.446       .  S
C932        C933   1.424       .  A
C933        C934   1.411       .  A
C933        C936   1.442       .  S
C934        C938   1.454       .  S
C935        N942   1.157       .  T
C936        N943   1.154       .  T
C937        N941   1.157       .  T
C938        N944   1.157       .  T
C939        N948   1.157       .  T
C940        N946   1.157       .  T
C949        C950   1.412   1_545  A
C949        C954   1.414       .  A
C949        C967   1.451       .  S
C950        C955   1.500       .  S
C950        C951   1.413       .  A
C951        C952   1.408       .  A
C951        C956   1.451       .  S
C952        C953   1.413   1_565  A
C952        C968   1.452       .  S
C953        C954   1.416       .  A
C954        C957   1.451       .  S
C955        C958   1.406       .  A
C955        C962   1.407       .  A
C956        N973   1.157       .  T
C957        N975   1.157       .  T
C958        C959   1.409       .  A
C958        C963   1.452       .  S
C959        C960   1.421       .  A
C959        C965   1.445       .  S
C960        C961   1.428       .  A
C961        C962   1.415       .  A
C961        C964   1.448       .  S
C962        C966   1.452   1_565  S
C963        N970   1.157       .  T
C964        N971   1.158       .  T
C965        N969   1.158       .  T
C966        N972   1.157       .  T
C967        N976   1.157       .  T
C968        N974   1.157       .  T
C977        C978   1.405       .  A
C977        C982   1.405       .  A
C977        C995   1.456       .  S
C978        C983   1.491       .  S
C978        C979   1.409       .  A
C979        C980   1.413       .  A
C979        C984   1.451       .  S
C980        C981   1.417       .  A
C980        C996   1.444       .  S
C981        C982   1.415       .  A
C982        C985   1.440       .  S
C983        C986   1.414       .  A
C983        C990   1.407       .  A
C984       N1001   1.157       .  T
C985       N1003   1.154       .  T
C986        C987   1.412       .  A
C986        C991   1.450       .  S
C987        C988   1.412       .  A
C987        C993   1.449       .  S
C988        C989   1.421       .  A
C989        C990   1.403       .  A
C989        C992   1.454       .  S
C990        C994   1.453       .  S
C991        N998   1.157       .  T
C992        N999   1.157       .  T
C993        N997   1.157       .  T
C994       N1000   1.157       .  T
C995       N1004   1.157       .  T
C996       N1002   1.156       .  T
C1005      C1006   1.414       .  A
C1005      C1010   1.414       .  A
C1005      C1023   1.449       .  S
C1006      C1011   1.503       .  S
C1006      C1007   1.410   1_565  A
C1007      C1008   1.410       .  A
C1007      C1012   1.452       .  S
C1008      C1009   1.420   1_545  A
C1008      C1024   1.452       .  S
C1009      C1010   1.414       .  A
C1010      C1013   1.451       .  S
C1011      C1014   1.405       .  A
C1011      C1018   1.404       .  A
C1012      N1029   1.157       .  T
C1013      N1031   1.157       .  T
C1014      C1015   1.417       .  A
C1014      C1019   1.453   1_565  S
C1015      C1016   1.431       .  A
C1015      C1021   1.446   1_565  S
C1016      C1017   1.431       .  A
C1017      C1018   1.413       .  A
C1017      C1020   1.446       .  S
C1018      C1022   1.455       .  S
C1019      N1026   1.157       .  T
C1020      N1027   1.156       .  T
C1021      N1025   1.157       .  T
C1022      N1028   1.157       .  T
C1023      N1032   1.157       .  T
C1024      N1030   1.157       .  T
C1033      C1034   1.412       .  A
C1033      C1038   1.414       .  A
C1033      C1051   1.450       .  S
C1034      C1039   1.509       .  S
C1034      C1035   1.412       .  A
C1035      C1036   1.415       .  A
C1035      C1040   1.452       .  S
C1036      C1037   1.421       .  A
C1036      C1052   1.451       .  S
C1037      C1038   1.420       .  A
C1038      C1041   1.451       .  S
C1039      C1042   1.407       .  A
C1039      C1046   1.405       .  A
C1040      N1057   1.157       .  T
C1041      N1059   1.157       .  T
C1042      C1043   1.418       .  A
C1042      C1047   1.454       .  S
C1043      C1044   1.434       .  A
C1043      C1049   1.447       .  S
C1044      C1045   1.427       .  A
C1045      C1046   1.414       .  A
C1045      C1048   1.446       .  S
C1046      C1050   1.452       .  S
C1047      N1054   1.157       .  T
C1048      N1055   1.156       .  T
C1049      N1053   1.158   1_545  T
C1050      N1056   1.157       .  T
C1051      N1060   1.157       .  T
C1052      N1058   1.157       .  T
C1061      C1062   1.410       .  A
C1061      C1066   1.419       .  A
C1061      C1079   1.449       .  S
C1062      C1067   1.506       .  S
C1062      C1063   1.406       .  A
C1063      C1064   1.412       .  A
C1063      C1068   1.454       .  S
C1064      C1065   1.425       .  A
C1064      C1080   1.446       .  S
C1065      C1066   1.426       .  A
C1066      C1069   1.451       .  S
C1067      C1070   1.413       .  A
C1067      C1074   1.415       .  A
C1068      N1085   1.157       .  T
C1069      N1087   1.157       .  T
C1070      C1071   1.409       .  A
C1070      C1075   1.448       .  S
C1071      C1072   1.411       .  A
C1071      C1077   1.453       .  S
C1072      C1073   1.412       .  A
C1073      C1074   1.418       .  A
C1073      C1076   1.448       .  S
C1074      C1078   1.449       .  S
C1075      N1082   1.156       .  T
C1076      N1083   1.157       .  T
C1077      N1081   1.157       .  T
C1078      N1084   1.157       .  T
C1079      N1088   1.157       .  T
C1080      N1086   1.156       .  T
C1089      C1090   1.413       .  A
C1089      C1094   1.420       .  A
C1089      C1107   1.449       .  S
C1090      C1095   1.512       .  S
C1090      C1091   1.407       .  A
C1091      C1092   1.415       .  A
C1091      C1096   1.453       .  S
C1092      C1093   1.427       .  A
C1092      C1108   1.445       .  S
C1093      C1094   1.422       .  A
C1094      C1097   1.450       .  S
C1095      C1098   1.416       .  A
C1095      C1102   1.416       .  A
C1096      N1113   1.157       .  T
C1097      N1115   1.157       .  T
C1098      C1099   1.412       .  A
C1098      C1103   1.448       .  S
C1099      C1100   1.411       .  A
C1099      C1105   1.453       .  S
C1100      C1101   1.412       .  A
C1101      C1102   1.418       .  A
C1101      C1104   1.449       .  S
C1102      C1106   1.449       .  S
C1103      N1110   1.156       .  T
C1104      N1111   1.157       .  T
C1105      N1109   1.157       .  T
C1106      N1112   1.157       .  T
C1107      N1116   1.157       .  T
C1108      N1114   1.157       .  T
C1117      C1118   1.412       .  A
C1117      C1122   1.411       .  A
C1117      C1135   1.452       .  S
C1118      C1123   1.510       .  S
C1118      C1119   1.417       .  A
C1119      C1120   1.416       .  A
C1119      C1124   1.451       .  S
C1120      C1121   1.414       .  A
C1120      C1136   1.449       .  S
C1121      C1122   1.422       .  A
C1122      C1125   1.452       .  S
C1123      C1126   1.415       .  A
C1123      C1130   1.411       .  A
C1124      N1141   1.157       .  T
C1125      N1143   1.158       .  T
C1126      C1127   1.417       .  A
C1126      C1131   1.450       .  S
C1127      C1128   1.418       .  A
C1127      C1133   1.449       .  S
C1128      C1129   1.418       .  A
C1129      C1130   1.409       .  A
C1129      C1132   1.445       .  S
C1130      C1134   1.454       .  S
C1131      N1138   1.157       .  T
C1132      N1139   1.156       .  T
C1133      N1137   1.157       .  T
C1134      N1140   1.157       .  T
C1135      N1144   1.157       .  T
C1136      N1142   1.157       .  T
C1145      C1146   1.404   1_556  A
C1145      C1150   1.409       .  A
C1145      C1163   1.455       .  S
C1146      C1151   1.494       .  S
C1146      C1147   1.405       .  A
C1147      C1148   1.416       .  A
C1147      C1152   1.451       .  S
C1148      C1149   1.426   1_554  A
C1148      C1164   1.447       .  S
C1149      C1150   1.424       .  A
C1150      C1153   1.444       .  S
C1151      C1154   1.408       .  A
C1151      C1158   1.415   1_554  A
C1152      N1169   1.157       .  T
C1153      N1171   1.155       .  T
C1154      C1155   1.407       .  A
C1154      C1159   1.452       .  S
C1155      C1156   1.417       .  A
C1155      C1161   1.452       .  S
C1156      C1157   1.408   1_554  A
C1157      C1158   1.410       .  A
C1157      C1160   1.452       .  S
C1158      C1162   1.448       .  S
C1159      N1166   1.157       .  T
C1160      N1167   1.157       .  T
C1161      N1165   1.157       .  T
C1162      N1168   1.157       .  T
C1163      N1172   1.157       .  T
C1164      N1170   1.157       .  T
C1173      C1174   1.406       .  A
C1173      C1178   1.412       .  A
C1173      C1191   1.454       .  S
C1174      C1179   1.504       .  S
C1174      C1175   1.409       .  A
C1175      C1176   1.419       .  A
C1175      C1180   1.451       .  S
C1176      C1177   1.424       .  A
C1176      C1192   1.446       .  S
C1177      C1178   1.422       .  A
C1178      C1181   1.441       .  S
C1179      C1182   1.411       .  A
C1179      C1186   1.415       .  A
C1180      N1197   1.157       .  T
C1181      N1199   1.153       .  T
C1182      C1183   1.412       .  A
C1182      C1187   1.452       .  S
C1183      C1184   1.418       .  A
C1183      C1189   1.451       .  S
C1184      C1185   1.408       .  A
C1185      C1186   1.412       .  A
C1185      C1188   1.447       .  S
C1186      C1190   1.449       .  S
C1187      N1194   1.157       .  T
C1188      N1195   1.156       .  T
C1189      N1193   1.157       .  T
C1190      N1196   1.157       .  T
C1191      N1200   1.157       .  T
C1192      N1198   1.157       .  T
C1201      C1202   1.406       .  A
C1201      C1206   1.411       .  A
C1201      C1219   1.454       .  S
C1202      C1207   1.508       .  S
C1202      C1203   1.410       .  A
C1203      C1204   1.421       .  A
C1203      C1208   1.449       .  S
C1204      C1205   1.424       .  A
C1204      C1220   1.449       .  S
C1205      C1206   1.425       .  A
C1206      C1209   1.446       .  S
C1207      C1210   1.411       .  A
C1207      C1214   1.408       .  A
C1208      N1225   1.157       .  T
C1209      N1227   1.156   1_554  T
C1210      C1211   1.417       .  A
C1210      C1215   1.451       .  S
C1211      C1212   1.422       .  A
C1211      C1217   1.450       .  S
C1212      C1213   1.426       .  A
C1213      C1214   1.415       .  A
C1213      C1216   1.451       .  S
C1214      C1218   1.451       .  S
C1215      N1222   1.157       .  T
C1216      N1223   1.158       .  T
C1217      N1221   1.157       .  T
C1218      N1224   1.157       .  T
C1219      N1228   1.157       .  T
C1220      N1226   1.157       .  T
C1229      C1230   1.410       .  A
C1229      C1234   1.419       .  A
C1229      C1247   1.450       .  S
C1230      C1235   1.507       .  S
C1230      C1231   1.408       .  A
C1231      C1232   1.412       .  A
C1231      C1236   1.454       .  S
C1232      C1233   1.423       .  A
C1232      C1248   1.447       .  S
C1233      C1234   1.423       .  A
C1234      C1237   1.448       .  S
C1235      C1238   1.409       .  A
C1235      C1242   1.411   1_556  A
C1236      N1253   1.157       .  T
C1237      N1255   1.157       .  T
C1238      C1239   1.415       .  A
C1238      C1243   1.451       .  S
C1239      C1240   1.423       .  A
C1239      C1245   1.451       .  S
C1240      C1241   1.424   1_556  A
C1241      C1242   1.416       .  A
C1241      C1244   1.450       .  S
C1242      C1246   1.452       .  S
C1243      N1250   1.157       .  T
C1244      N1251   1.158       .  T
C1245      N1249   1.157       .  T
C1246      N1252   1.157       .  T
C1247      N1256   1.157       .  T
C1248      N1254   1.156       .  T
C1257      C1258   1.410       .  A
C1257      C1262   1.415       .  A
C1257      C1275   1.451       .  S
C1258      C1263   1.503       .  S
C1258      C1259   1.407       .  A
C1259      C1260   1.413       .  A
C1259      C1264   1.452       .  S
C1260      C1261   1.427       .  A
C1260      C1276   1.452       .  S
C1261      C1262   1.424       .  A
C1262      C1265   1.450       .  S
C1263      C1266   1.408       .  A
C1263      C1270   1.408       .  A
C1264      N1281   1.157       .  T
C1265      N1283   1.158       .  T
C1266      C1267   1.412       .  A
C1266      C1271   1.454       .  S
C1267      C1268   1.422   1_655  A
C1267      C1273   1.446   1_655  S
C1268      C1269   1.424   1_455  A
C1269      C1270   1.416       .  A
C1269      C1272   1.448       .  S
C1270      C1274   1.451       .  S
C1271      N1278   1.157       .  T
C1272      N1279   1.157   1_565  T
C1273      N1277   1.156       .  T
C1274      N1280   1.157       .  T
C1275      N1284   1.157       .  T
C1276      N1282   1.158       .  T
C1285      C1286   1.409       .  A
C1285      C1290   1.410       .  A
C1285      C1303   1.453       .  S
C1286      C1291   1.500       .  S
C1286      C1287   1.412       .  A
C1287      C1288   1.417       .  A
C1287      C1292   1.449       .  S
C1288      C1289   1.415       .  A
C1288      C1304   1.450       .  S
C1289      C1290   1.420       .  A
C1290      C1293   1.452       .  S
C1291      C1294   1.411       .  A
C1291      C1298   1.407       .  A
C1292      N1309   1.157       .  T
C1293      N1311   1.157       .  T
C1294      C1295   1.416       .  A
C1294      C1299   1.448       .  S
C1295      C1296   1.410       .  A
C1295      C1301   1.443       .  S
C1296      C1297   1.417       .  A
C1297      C1298   1.410       .  A
C1297      C1300   1.447       .  S
C1298      C1302   1.452       .  S
C1299      N1306   1.157       .  T
C1300      N1307   1.157       .  T
C1301      N1305   1.156   1_565  T
C1302      N1308   1.157       .  T
C1303      N1312   1.157       .  T
C1304      N1310   1.157       .  T
C1313      C1314   1.411       .  A
C1313      C1318   1.411       .  A
C1313      C1331   1.452       .  S
C1314      C1319   1.495       .  S
C1314      C1315   1.408       .  A
C1315      C1316   1.411       .  A
C1315      C1320   1.451       .  S
C1316      C1317   1.419       .  A
C1316      C1332   1.451       .  S
C1317      C1318   1.418       .  A
C1318      C1321   1.452       .  S
C1319      C1322   1.400       .  A
C1319      C1326   1.408       .  A
C1320      N1337   1.157       .  T
C1321      N1339   1.158       .  T
C1322      C1323   1.405       .  A
C1322      C1327   1.459       .  S
C1323      C1324   1.427       .  A
C1323      C1329   1.441       .  S
C1324      C1325   1.423       .  A
C1325      C1326   1.418       .  A
C1325      C1328   1.446       .  S
C1326      C1330   1.448       .  S
C1327      N1334   1.157       .  T
C1328      N1335   1.155       .  T
C1329      N1333   1.156       .  T
C1330      N1336   1.157       .  T
C1331      N1340   1.157       .  T
C1332      N1338   1.157       .  T
C1341      C1342   1.409       .  A
C1341      C1346   1.409       .  A
C1341      C1359   1.453       .  S
C1342      C1347   1.498       .  S
C1342      C1343   1.411       .  A
C1343      C1344   1.412       .  A
C1343      C1348   1.451       .  S
C1344      C1345   1.421       .  A
C1344      C1360   1.451       .  S
C1345      C1346   1.424       .  A
C1346      C1349   1.452       .  S
C1347      C1350   1.415       .  A
C1347      C1354   1.409       .  A
C1348      N1365   1.157       .  T
C1349      N1367   1.158       .  T
C1350      C1351   1.415       .  A
C1350      C1355   1.449       .  S
C1351      C1352   1.410       .  A
C1351      C1357   1.449       .  S
C1352      C1353   1.417       .  A
C1353      C1354   1.404       .  A
C1353      C1356   1.451       .  S
C1354      C1358   1.454       .  S
C1355      N1362   1.157       .  T
C1356      N1363   1.157   1_655  T
C1357      N1361   1.157       .  T
C1358      N1364   1.157       .  T
C1359      N1368   1.157       .  T
C1360      N1366   1.158       .  T
C1369      C1370   1.410       .  A
C1369      C1374   1.413       .  A
C1369      C1387   1.451       .  S
C1370      C1375   1.500       .  S
C1370      C1371   1.408       .  A
C1371      C1372   1.411       .  A
C1371      C1376   1.452       .  S
C1372      C1373   1.422       .  A
C1372      C1388   1.451       .  S
C1373      C1374   1.421       .  A
C1374      C1377   1.450       .  S
C1375      C1378   1.408       .  A
C1375      C1382   1.408       .  A
C1376      N1393   1.157       .  T
C1377      N1395   1.157       .  T
C1378      C1379   1.410       .  A
C1378      C1383   1.454       .  S
C1379      C1380   1.422       .  A
C1379      C1385   1.448       .  S
C1380      C1381   1.423       .  A
C1381      C1382   1.414       .  A
C1381      C1384   1.449       .  S
C1382      C1386   1.451       .  S
C1383      N1390   1.157       .  T
C1384      N1391   1.157   1_556  T
C1385      N1389   1.157   1_565  T
C1386      N1392   1.157   1_556  T
C1387      N1396   1.157       .  T
C1388      N1394   1.157       .  T
C1397      C1398   1.409       .  A
C1397      C1402   1.414       .  A
C1397      C1415   1.451       .  S
C1398      C1403   1.508       .  S
C1398      C1399   1.413       .  A
C1399      C1400   1.417       .  A
C1399      C1404   1.450       .  S
C1400      C1401   1.420       .  A
C1400      C1416   1.450       .  S
C1401      C1402   1.424       .  A
C1402      C1405   1.452       .  S
C1403      C1406   1.409       .  A
C1403      C1410   1.407       .  A
C1404      N1421   1.157       .  T
C1405      N1423   1.158       .  T
C1406      C1407   1.419       .  A
C1406      C1411   1.451       .  S
C1407      C1408   1.425       .  A
C1407      C1413   1.448       .  S
C1408      C1409   1.425       .  A
C1409      C1410   1.415       .  A
C1409      C1412   1.447       .  S
C1410      C1414   1.453       .  S
C1411      N1418   1.157       .  T
C1412      N1419   1.156       .  T
C1413      N1417   1.157   1_556  T
C1414      N1420   1.157       .  T
C1415      N1424   1.157       .  T
C1416      N1422   1.157       .  T
C1425      C1426   1.414       .  A
C1425      C1430   1.417       .  A
C1425      C1443   1.451       .  S
C1426      C1431   1.506       .  S
C1426      C1427   1.410       .  A
C1427      C1428   1.409       .  A
C1427      C1432   1.452       .  S
C1428      C1429   1.411       .  A
C1428      C1444   1.441       .  S
C1429      C1430   1.413       .  A
C1430      C1433   1.442       .  S
C1431      C1434   1.413       .  A
C1431      C1438   1.414       .  A
C1432      N1449   1.157       .  T
C1433      N1451   1.157       .  T
C1434      C1435   1.411       .  A
C1434      C1439   1.451       .  S
C1435      C1436   1.418       .  A
C1435      C1441   1.452       .  S
C1436      C1437   1.419       .  A
C1437      C1438   1.414       .  A
C1437      C1440   1.451       .  S
C1438      C1442   1.452       .  S
C1439      N1446   1.157       .  T
C1440      N1447   1.157       .  T
C1441      N1445   1.157       .  T
C1442      N1448   1.157       .  T
C1443      N1452   1.157       .  T
C1444      N1450   1.155       .  T
C1453      C1454   1.410       .  A
C1453      C1458   1.408       .  A
C1453      C1471   1.452       .  S
C1454      C1459   1.492       .  S
C1454      C1455   1.412       .  A
C1455      C1456   1.409       .  A
C1455      C1460   1.451       .  S
C1456      C1457   1.413       .  A
C1456      C1472   1.451       .  S
C1457      C1458   1.416       .  A
C1458      C1461   1.452       .  S
C1459      C1462   1.403       .  A
C1459      C1466   1.409       .  A
C1460      N1477   1.157       .  T
C1461      N1479   1.157       .  T
C1462      C1463   1.403       .  A
C1462      C1467   1.459       .  S
C1463      C1464   1.422       .  A
C1463      C1469   1.441       .  S
C1464      C1465   1.422       .  A
C1465      C1466   1.416       .  A
C1465      C1468   1.449       .  S
C1466      C1470   1.448       .  S
C1467      N1474   1.157       .  T
C1468      N1475   1.157       .  T
C1469      N1473   1.154       .  T
C1470      N1476   1.157       .  T
C1471      N1480   1.157       .  T
C1472      N1478   1.157       .  T
C1481      C1482   1.412       .  A
C1481      C1486   1.416       .  A
C1481      C1499   1.450       .  S
C1482      C1487   1.505       .  S
C1482      C1483   1.408       .  A
C1483      C1484   1.412       .  A
C1483      C1488   1.451       .  S
C1484      C1485   1.424       .  A
C1484      C1500   1.451       .  S
C1485      C1486   1.420       .  A
C1486      C1489   1.450       .  S
C1487      C1490   1.408       .  A
C1487      C1494   1.408       .  A
C1488      N1505   1.157       .  T
C1489      N1507   1.158       .  T
C1490      C1491   1.414       .  A
C1490      C1495   1.454       .  S
C1491      C1492   1.423       .  A
C1491      C1497   1.444       .  S
C1492      C1493   1.422       .  A
C1493      C1494   1.417       .  A
C1493      C1496   1.447   1_655  S
C1494      C1498   1.450   1_655  S
C1495      N1502   1.157       .  T
C1496      N1503   1.156       .  T
C1497      N1501   1.156       .  T
C1498      N1504   1.157       .  T
C1499      N1508   1.157       .  T
C1500      N1506   1.157       .  T
C1509      C1510   1.411       .  A
C1509      C1514   1.412       .  A
C1509      C1527   1.452       .  S
C1510      C1515   1.505       .  S
C1510      C1511   1.413       .  A
C1511      C1512   1.418       .  A
C1511      C1516   1.449       .  S
C1512      C1513   1.412       .  A
C1512      C1528   1.449       .  S
C1513      C1514   1.416       .  A
C1514      C1517   1.452       .  S
C1515      C1518   1.406       .  A
C1515      C1522   1.401       .  A
C1516      N1533   1.157   1_655  T
C1517      N1535   1.157       .  T
C1518      C1519   1.422       .  A
C1518      C1523   1.452       .  S
C1519      C1520   1.431       .  A
C1519      C1525   1.445       .  S
C1520      C1521   1.419       .  A
C1521      C1522   1.412       .  A
C1521      C1524   1.436       .  S
C1522      C1526   1.453       .  S
C1523      N1530   1.157       .  T
C1524      N1531   1.152       .  T
C1525      N1529   1.157       .  T
C1526      N1532   1.157       .  T
C1527      N1536   1.157       .  T
C1528      N1534   1.157       .  T
C1537      C1538   1.407       .  A
C1537      C1542   1.410       .  A
C1537      C1555   1.454       .  S
C1538      C1543   1.505       .  S
C1538      C1539   1.412       .  A
C1539      C1540   1.417       .  A
C1539      C1544   1.452       .  S
C1540      C1541   1.421       .  A
C1540      C1556   1.447       .  S
C1541      C1542   1.421       .  A
C1542      C1545   1.441       .  S
C1543      C1546   1.408       .  A
C1543      C1550   1.416       .  A
C1544      N1561   1.157       .  T
C1545      N1563   1.153       .  T
C1546      C1547   1.409       .  A
C1546      C1551   1.454       .  S
C1547      C1548   1.427       .  A
C1547      C1553   1.452       .  S
C1548      C1549   1.418       .  A
C1549      C1550   1.415       .  A
C1549      C1552   1.451       .  S
C1550      C1554   1.451       .  S
C1551      N1558   1.157       .  T
C1552      N1559   1.158       .  T
C1553      N1557   1.158       .  T
C1554      N1560   1.157       .  T
C1555      N1564   1.157       .  T
C1556      N1562   1.157       .  T
C1565      C1566   1.406       .  A
C1565      C1570   1.412       .  A
C1565      C1583   1.452       .  S
C1566      C1571   1.497       .  S
C1566      C1567   1.411       .  A
C1567      C1568   1.412       .  A
C1567      C1572   1.451       .  S
C1568      C1569   1.420       .  A
C1568      C1584   1.450       .  S
C1569      C1570   1.426       .  A
C1570      C1573   1.451       .  S
C1571      C1574   1.408       .  A
C1571      C1578   1.400       .  A
C1572      N1589   1.157       .  T
C1573      N1591   1.157       .  T
C1574      C1575   1.422       .  A
C1574      C1579   1.449       .  S
C1575      C1576   1.427       .  A
C1575      C1581   1.449       .  S
C1576      C1577   1.423       .  A
C1577      C1578   1.404       .  A
C1577      C1580   1.440       .  S
C1578      C1582   1.459       .  S
C1579      N1586   1.157       .  T
C1580      N1587   1.155       .  T
C1581      N1585   1.157       .  T
C1582      N1588   1.157       .  T
C1583      N1592   1.157       .  T
C1584      N1590   1.157       .  T
