geometry optimzed in LAMMPS
_audit_creation_date              2020-11-30 
_audit_creation_method            'lammps2cif' 
_symmetry_space_group_name_H-M    'P1' 
_symmetry_Int_Tables_number       1 
_symmetry_cell_setting            triclinic 
loop_ 
_symmetry_equiv_pos_as_xyz 
  x,y,z 
_cell_length_a                    49.3563164 
_cell_length_b                    48.948388302768215 
_cell_length_c                    49.34725321684727 
_cell_angle_alpha                 90.38129749863533 
_cell_angle_beta                  90.81738960796815 
_cell_angle_gamma                 89.14338259998576 
loop_ 
_atom_site_label 
_atom_site_type_symbol 
_atom_site_fract_x 
_atom_site_fract_y 
_atom_site_fract_z 
_atom_site_charge 
N1          N  0.62771538  0.14240320  0.25985856     0.00900
C2          C  0.61421394  0.15374663  0.28109067    -0.09900
C3          C  0.58833868  0.14352153  0.28333317    -0.05500
C4          C  0.58640669  0.12473334  0.26246976    -0.06100
C5          C  0.61067571  0.12433979  0.24848910    -0.10000
N6          N  0.33330240  0.11408537  0.28423178     0.00900
C7          C  0.31672350  0.10141385  0.26642252    -0.09900
C8          C  0.32613262  0.07489020  0.26224218    -0.05500
C9          C  0.34999675  0.07203622  0.27772749    -0.06100
C10         C  0.35335585  0.09659938  0.29146690    -0.10000
C11         C  0.50805218  0.17448831  0.36686652     0.32500
C12         C  0.46961408  0.19844021  0.40034480     0.32500
C13         C  0.51551200  0.17512943  0.39759920    -0.03700
C14         C  0.50172739  0.20472578  0.36217931    -0.04500
C15         C  0.47958473  0.16201106  0.36630831    -0.04400
C16         C  0.49505268  0.18630405  0.41470345    -0.03700
C17         C  0.48296676  0.21740509  0.37929065    -0.04500
C18         C  0.46011673  0.17438115  0.38271437    -0.04400
C19         C  0.50788922  0.19744032  0.43696932    -0.29800
N20         N  0.53496903  0.19550616  0.43403618     0.16700
C21         C  0.53974409  0.18297544  0.40996822    -0.29800
H22         H  0.55920878  0.18338166  0.40021038     0.18700
C23         C  0.48324546  0.24486095  0.37257726    -0.28800
N24         N  0.49930840  0.24813378  0.35084237     0.15400
C25         C  0.51133165  0.22395414  0.34487776    -0.28700
C26         C  0.43533819  0.16416938  0.37469617    -0.29000
N27         N  0.43920160  0.14535216  0.35455269     0.16000
H28         H  0.41586193  0.17152457  0.38168014     0.18600
C29         C  0.46628060  0.14377994  0.34969452    -0.29000
H30         H  0.47574469  0.13109008  0.33440874     0.18600
H31         H  0.52579182  0.22070373  0.32885082     0.18600
H32         H  0.49785266  0.20905679  0.45270270     0.18700
H33         H  0.47299280  0.26165550  0.38251000     0.18600
N34         N  0.38612071  0.81532003  0.27838748     0.00900
C35         C  0.37165428  0.83105491  0.26067523    -0.09900
C36         C  0.38647012  0.85272206  0.25285747    -0.05500
C37         C  0.41131580  0.84965606  0.26656346    -0.06100
C38         C  0.41108754  0.82622680  0.28295441    -0.10000
N39         N  0.67572623  0.87715675  0.23920611     0.00900
C40         C  0.66308771  0.86317036  0.25887855    -0.09900
C41         C  0.63952107  0.87626392  0.26656932    -0.05500
C42         C  0.63789076  0.89971691  0.25044268    -0.06100
C43         C  0.66055803  0.89981860  0.23342758    -0.10000
C44         C  0.71670930  0.02917294  0.12685371     0.32500
C45         C  0.69611497  0.98536103  0.15576484     0.32500
C46         C  0.70705246  0.00426348  0.11047143    -0.03700
C47         C  0.73581346  0.01606129  0.14874191    -0.04500
C48         C  0.69134427  0.03539841  0.14367442    -0.04400
C49         C  0.69785962  0.98133257  0.12465839    -0.03700
C50         C  0.72542151  0.99357630  0.16244826    -0.04500
C51         C  0.68076048  0.01312607  0.15762730    -0.04400
C52         C  0.70376685  0.95935114  0.10758357    -0.29800
N53         N  0.71243479  0.96880346  0.08335633     0.16700
C54         C  0.71389897  0.99617783  0.08500146    -0.29800
H55         H  0.72192861  0.00922283  0.06954859     0.18700
C56         C  0.74235596  0.98796295  0.18398292    -0.28800
N57         N  0.76132230  0.00754070  0.18600094     0.15400
C58         C  0.75740529  0.02505360  0.16483123    -0.28700
C59         C  0.66106966  0.02322903  0.17435861    -0.29000
N60         N  0.66058158  0.05093850  0.17297479     0.16000
H61         H  0.64904123  0.01111976  0.18775423     0.18600
C62         C  0.67925317  0.05855095  0.15449485    -0.29000
H63         H  0.68531240  0.07933490  0.15082925     0.18600
H64         H  0.76815582  0.04395565  0.16231513     0.18600
H65         H  0.70465824  0.93805891  0.11324985     0.18700
H66         H  0.73996786  0.97166030  0.19839232     0.18600
C67         C  0.54603030  0.76479325  0.38896243     0.32500
C68         C  0.50273374  0.78245408  0.35536912     0.32500
C69         C  0.55181937  0.78966608  0.37011799    -0.03700
C70         C  0.53493858  0.74369420  0.36773619    -0.04500
C71         C  0.52007168  0.77470678  0.40255750    -0.04400
C72         C  0.52980276  0.79834744  0.35334598    -0.03700
C73         C  0.51374041  0.75298512  0.35051033    -0.04500
C74         C  0.49795293  0.78268348  0.38632147    -0.04400
C75         C  0.54027502  0.81498227  0.33364506    -0.29800
N76         N  0.56752180  0.81730943  0.33735983     0.16700
C77         C  0.57480847  0.80142494  0.35909778    -0.29800
H78         H  0.59554591  0.79715547  0.36530938     0.18700
C79         C  0.51057018  0.73332949  0.33050015    -0.28800
N80         N  0.52701010  0.71161408  0.33594628     0.15400
C81         C  0.54242896  0.71781496  0.35822186    -0.28700
C82         C  0.47559949  0.78208077  0.40324497    -0.29000
N83         N  0.48427866  0.77563414  0.42884925     0.16000
H84         H  0.45456183  0.78342006  0.39684708     0.18600
C85         C  0.51132487  0.77179872  0.42847567    -0.29000
H86         H  0.52321380  0.76400989  0.44542166     0.18600
H87         H  0.55840880  0.70477449  0.36637696     0.18600
H88         H  0.52883045  0.82380246  0.31693018     0.18700
H89         H  0.49778811  0.73470571  0.31259686     0.18600
C90         C  0.28555933  0.99898820  0.17947696     0.32500
C91         C  0.26941202  0.95920088  0.14317255     0.32500
C92         C  0.30050576  0.97104057  0.18149459    -0.03700
C93         C  0.25552042  0.99078283  0.18102875    -0.04500
C94         C  0.28790605  0.00629598  0.14910910    -0.04400
C95         C  0.29235637  0.95048504  0.16349410    -0.03700
C96         C  0.24717686  0.97043390  0.16289221    -0.04500
C97         C  0.28090659  0.98541171  0.13117155    -0.04400
C98         C  0.30654539  0.92692106  0.17155743    -0.29800
N99         N  0.32346900  0.93302155  0.19282260     0.16700
C100        C  0.31972558  0.95988096  0.19898623    -0.29800
H101        H  0.32980861  0.97043072  0.21553370     0.18700
C102        C  0.22000981  0.96576508  0.16852775    -0.28800
N103        N  0.21164015  0.98307828  0.18863727     0.15400
C104        C  0.23329664  0.99832295  0.19639504    -0.28700
C105        C  0.27813230  0.99640275  0.10566806    -0.29000
N106        N  0.28072905  0.02363347  0.10743017     0.16000
H107        H  0.27230413  0.98574833  0.08727450     0.18600
C108        C  0.28529513  0.03019926  0.13386268    -0.29000
H109        H  0.28446077  0.05090780  0.14163388     0.18600
H110        H  0.23289165  0.01387618  0.21208140     0.18600
H111        H  0.30380832  0.90650386  0.16357373     0.18700
H112        H  0.20731394  0.95055159  0.15895729     0.18600
N113        N  0.14339240  0.26683994  0.68059930     0.00900
C114        C  0.12147399  0.26309854  0.66464567    -0.09900
C115        C  0.12449712  0.27732983  0.64099521    -0.05500
C116        C  0.14940315  0.28948911  0.64239689    -0.06100
C117        C  0.16063325  0.28265799  0.66706317    -0.10000
N118        N  0.15944425  0.28475308  0.37886253     0.00900
C119        C  0.14280780  0.26763402  0.36469751    -0.09900
C120        C  0.12101562  0.26083529  0.37978002    -0.05500
C121        C  0.12415528  0.27597181  0.40399252    -0.06100
C122        C  0.14850009  0.29146451  0.40352387    -0.10000
C123        C  0.22607682  0.40719335  0.52157444     0.32500
C124        C  0.20335107  0.36778145  0.48707084     0.32500
C125        C  0.20348814  0.41692113  0.50191575    -0.03700
C126        C  0.24626264  0.39145573  0.50276554    -0.04500
C127        C  0.21280820  0.38277307  0.53507701    -0.04400
C128        C  0.19158114  0.39679780  0.48489873    -0.03700
C129        C  0.23434299  0.37212218  0.48448878    -0.04500
C130        C  0.20175093  0.36265638  0.51775817    -0.04400
C131        C  0.18441111  0.40947929  0.46114226    -0.29800
N132        N  0.19298079  0.43539911  0.46190469     0.16700
C133        C  0.20371322  0.44039052  0.48677340    -0.29800
H134        H  0.21682585  0.45747516  0.49113839     0.18700
C135        C  0.25340970  0.35160918  0.48072041    -0.28800
N136        N  0.27576623  0.35602681  0.49629128     0.15400
C137        C  0.27130642  0.37981697  0.51006515    -0.28700
C138        C  0.19499107  0.34118401  0.53384000    -0.29000
N139        N  0.20043391  0.34815161  0.55989500     0.16000
H140        H  0.18638280  0.32196549  0.52741948     0.18600
C141        C  0.21155093  0.37320354  0.56101620    -0.29000
H142        H  0.21796807  0.38355968  0.57940721     0.18600
H143        H  0.28357100  0.38649061  0.52713556     0.18600
H144        H  0.17984819  0.39879476  0.44238309     0.18700
H145        H  0.24963159  0.33324238  0.46913467     0.18600
N146        N  0.86065464  0.24900246  0.37842976     0.00900
C147        C  0.87615481  0.23328261  0.36176392    -0.09900
C148        C  0.90054131  0.22581575  0.37456318    -0.05500
C149        C  0.89831663  0.23853163  0.40065120    -0.06100
C150        C  0.87346968  0.25324349  0.40241783    -0.10000
N151        N  0.88952599  0.22655865  0.68764035     0.00900
C152        C  0.87557195  0.24317551  0.67034830    -0.09900
C153        C  0.88867046  0.24545541  0.64585932    -0.05500
C154        C  0.91156437  0.22880050  0.64867737    -0.06100
C155        C  0.91186146  0.21756110  0.67455849    -0.10000
C156        C  0.04508051  0.11755348  0.73410992     0.32500
C157        C  0.99933013  0.14852395  0.72223467     0.32500
C158        C  0.01843345  0.10242526  0.73167796    -0.03700
C159        C  0.03833376  0.14063772  0.75444761    -0.04500
C160        C  0.04579104  0.13340529  0.70732917    -0.04400
C161        C  0.99508622  0.11778082  0.72636729    -0.03700
C162        C  0.01486407  0.15617668  0.74894526    -0.04500
C163        C  0.02190724  0.14865956  0.70097607    -0.04400
C164        C  0.97358694  0.10062886  0.73063478    -0.29800
N165        N  0.98367345  0.07546185  0.73712412     0.16700
C166        C  0.01099870  0.07638695  0.73742586    -0.29800
H167        H  0.02446088  0.05960885  0.74293810     0.18700
C168        C  0.01134350  0.17318963  0.77132393    -0.28800
N169        N  0.03244595  0.16934369  0.78911480     0.15400
C170        C  0.04908489  0.14971501  0.77872429    -0.28700
C171        C  0.02966817  0.17081628  0.68622294    -0.29000
N172        N  0.05681168  0.17067862  0.68434222     0.16000
H173        H  0.01692257  0.18832762  0.68130606     0.18600
C174        C  0.06688242  0.14855670  0.69745395    -0.29000
H175        H  0.08798093  0.14614216  0.70341512     0.18600
H176        H  0.06756492  0.14227654  0.78836103     0.18600
H177        H  0.95233403  0.10639247  0.73074066     0.18700
H178        H  0.99411035  0.18653154  0.77504020     0.18600
C179        C  0.82581713  0.33100302  0.48674991     0.32500
C180        C  0.80867222  0.37088497  0.52412201     0.32500
C181        C  0.82651569  0.36125884  0.47755095    -0.03700
C182        C  0.79603603  0.32872398  0.49720287    -0.04500
C183        C  0.84142621  0.33187586  0.51456312    -0.04400
C184        C  0.81855210  0.38075191  0.49663808    -0.03700
C185        C  0.78755341  0.34921023  0.51564124    -0.04500
C186        C  0.83266926  0.35182136  0.53376008    -0.04400
C187        C  0.81622988  0.40548893  0.48378605    -0.29800
N188        N  0.82079789  0.40203777  0.45696162     0.16700
C189        C  0.82714385  0.37502224  0.45285112    -0.29800
H190        H  0.82964905  0.36555755  0.43314643     0.18700
C191        C  0.76164514  0.34294695  0.52374474    -0.28800
N192        N  0.75398051  0.31951133  0.51125326     0.15400
C193        C  0.77487259  0.31016527  0.49600349    -0.28700
C194        C  0.83928108  0.34071482  0.55911981    -0.29000
N195        N  0.85286495  0.31632354  0.55638382     0.16000
H196        H  0.83230146  0.34877130  0.57830239     0.18600
C197        C  0.85350340  0.31072603  0.52930298    -0.29000
H198        H  0.86076095  0.29174033  0.52053946     0.18600
H199        H  0.77456981  0.29052624  0.48602258     0.18600
H200        H  0.80962112  0.42445226  0.49312633     0.18700
H201        H  0.74923088  0.35450851  0.53776878     0.18600
C202        C  0.98310370  0.15142804  0.32163270     0.32500
C203        C  0.02030166  0.11236682  0.30216246     0.32500
C204        C  0.97629487  0.12151634  0.32577687    -0.03700
C205        C  0.98913936  0.15241993  0.29068017    -0.04500
C206        C  0.01209261  0.15302251  0.33345020    -0.04400
C207        C  0.99520346  0.10237175  0.31718615    -0.03700
C208        C  0.00726003  0.13225558  0.28054199    -0.04500
C209        C  0.03183004  0.13391971  0.32363269    -0.04400
C210        C  0.98397202  0.07714763  0.32069747    -0.29800
N211        N  0.95775381  0.08027951  0.32826024     0.16700
C212        C  0.95300710  0.10755454  0.33168821    -0.29800
H213        H  0.93343911  0.11694091  0.33547844     0.18700
C214        C  0.01521288  0.14144885  0.25503669    -0.28800
N215        N  0.00302097  0.16611405  0.24943385     0.15400
C216        C  0.98882968  0.17337882  0.27179664    -0.28700
C217        C  0.05653046  0.14785833  0.32752985    -0.29000
N218        N  0.05213394  0.17261234  0.34025636     0.16000
H219        H  0.07598531  0.14121108  0.31986808     0.18600
C220        C  0.02515369  0.17578717  0.34310512    -0.29000
H221        H  0.01534776  0.19451125  0.34987085     0.18600
H222        H  0.98021528  0.19349753  0.27472543     0.18600
H223        H  0.99397738  0.05787839  0.31638103     0.18700
H224        H  0.03014220  0.13157054  0.24229556     0.18600
N225        N  0.23571378  0.65793111  0.16474854     0.00900
C226        C  0.25310443  0.64062416  0.17731571    -0.09900
C227        C  0.25654385  0.61697916  0.16223737    -0.05500
C228        C  0.23999900  0.61981226  0.13965274    -0.06100
C229        C  0.22775325  0.64532824  0.14167326    -0.10000
N230        N  0.25582399  0.34398332  0.14908451     0.00900
C231        C  0.27601695  0.35774369  0.16248247    -0.09900
C232        C  0.28513264  0.38017074  0.14766204    -0.05500
C233        C  0.26879060  0.37920852  0.12400516    -0.06100
C234        C  0.25087665  0.35709516  0.12537956    -0.10000
C235        C  0.40099460  0.50514428  0.21014193     0.32500
C236        C  0.36537703  0.46574507  0.18851800     0.32500
C237        C  0.41313453  0.48367907  0.19084406    -0.03700
C238        C  0.38515280  0.48779159  0.23076844    -0.04500
C239        C  0.37737449  0.51591126  0.19248357    -0.04400
C240        C  0.39562507  0.46284676  0.18096924    -0.03700
C241        C  0.36798893  0.46717399  0.21991709    -0.04500
C242        C  0.35953365  0.49612001  0.18153720    -0.04400
C243        C  0.41161742  0.43942269  0.18158213    -0.29800
N244        N  0.43733424  0.44566048  0.18863680     0.16700
C245        C  0.43860429  0.47266539  0.19322582    -0.29800
H246        H  0.45532787  0.48224253  0.20389526     0.18700
C247        C  0.34851984  0.46266594  0.23911362    -0.28800
N248        N  0.35111130  0.48086137  0.25970955     0.15400
C249        C  0.37289888  0.49643541  0.25456399    -0.28700
C250        C  0.33691388  0.51010135  0.17237803    -0.29000
N251        N  0.34035130  0.53706679  0.17739177     0.16000
H252        H  0.31842272  0.50129193  0.16447099     0.18600
C253        C  0.36460209  0.54090227  0.18992577    -0.29000
H254        H  0.37134354  0.56008851  0.19849881     0.18600
H255        H  0.37761093  0.51507335  0.26546063     0.18600
H256        H  0.40388022  0.41887084  0.18257934     0.18700
H257        H  0.33211963  0.44841289  0.23718667     0.18600
N258        N  0.27769254  0.35605352  0.87280613     0.00900
C259        C  0.29187092  0.37191544  0.85551450    -0.09900
C260        C  0.29382549  0.39859664  0.86599929    -0.05500
C261        C  0.27996072  0.39789822  0.89060041    -0.06100
C262        C  0.26987061  0.37179878  0.89396476    -0.10000
N263        N  0.26130354  0.65851432  0.87403976     0.00900
C264        C  0.24354431  0.67382648  0.88862563    -0.09900
C265        C  0.23687103  0.66036744  0.91225054    -0.05500
C266        C  0.25162025  0.63547347  0.91082978    -0.06100
C267        C  0.26704208  0.63517479  0.88721761    -0.10000
C268        C  0.11042307  0.72761547  0.01705359     0.32500
C269        C  0.15265650  0.70822741  0.98464241     0.32500
C270        C  0.10241190  0.70987924  0.99231064    -0.03700
C271        C  0.12844142  0.74971514  0.00398099    -0.04500
C272        C  0.13249837  0.70978530  0.03077841    -0.04400
C273        C  0.12393430  0.69995696  0.97618525    -0.03700
C274        C  0.14926229  0.73995545  0.98683699    -0.04500
C275        C  0.15341510  0.70004534  0.01428375    -0.04400
C276        C  0.11375440  0.69638071  0.95044877    -0.29800
N277        N  0.08724835  0.70289480  0.95009810     0.16700
C278        C  0.08025528  0.71219638  0.97498676    -0.29800
H279        H  0.06157026  0.72315950  0.97926538     0.18700
C280        C  0.16573142  0.76195818  0.98181623    -0.28800
N281        N  0.15753203  0.78387076  0.99687959     0.15400
C282        C  0.13536490  0.77624094  0.01096218    -0.28700
C283        C  0.17236092  0.68752696  0.03049719    -0.29000
N284        N  0.16373716  0.68942983  0.05629267     0.16000
H285        H  0.19153867  0.67866806  0.02427510     0.18600
C286        C  0.13970278  0.70311794  0.05695848    -0.29000
H287        H  0.12910359  0.70885483  0.07523326     0.18600
H288        H  0.12625239  0.78830658  0.02694727     0.18600
H289        H  0.12561689  0.69323373  0.93236397     0.18700
H290        H  0.18300103  0.76189025  0.96865583     0.18600
C291        C  0.35681759  0.48581764  0.81428535     0.32500
C292        C  0.39788091  0.51972714  0.79703848     0.32500
C293        C  0.38564033  0.47472775  0.81677479    -0.03700
C294        C  0.35510561  0.49483732  0.78403109    -0.04500
C295        C  0.35849588  0.51379351  0.82865580    -0.04400
C296        C  0.40604829  0.49139410  0.80824640    -0.03700
C297        C  0.37601215  0.51175399  0.77508529    -0.04500
C298        C  0.37883825  0.53184525  0.82016181    -0.04400
C299        C  0.42943305  0.47548985  0.80833904    -0.29800
N300        N  0.42372849  0.44983534  0.81690809     0.16700
C301        C  0.39682771  0.44930121  0.82214176    -0.29800
H302        H  0.38579544  0.43159678  0.82849164     0.18700
C303        C  0.36899629  0.51925530  0.74859615    -0.28800
N304        N  0.34499615  0.50752368  0.74117951     0.15400
C305        C  0.33614034  0.49369874  0.76308996    -0.28700
C306        C  0.36796292  0.55803146  0.82671394    -0.29000
N307        N  0.34349856  0.55585917  0.83961982     0.16000
H308        H  0.37643789  0.57725872  0.82060821     0.18600
C309        C  0.33778953  0.52893552  0.84008279    -0.29000
H310        H  0.31878287  0.52070697  0.84673096     0.18600
H311        H  0.31660020  0.48434223  0.76388794     0.18600
H312        H  0.44886082  0.48166929  0.80078351     0.18700
H313        H  0.38010014  0.53309639  0.73603257     0.18600
C314        C  0.13683803  0.29614521  0.00129769     0.32500
C315        C  0.17167468  0.31333921  0.04266116     0.32500
C316        C  0.12356813  0.30766687  0.02701089    -0.03700
C317        C  0.15692132  0.27452675  0.01263680    -0.04500
C318        C  0.15671187  0.31908601  0.99359656    -0.04400
C319        C  0.14057416  0.31581070  0.04825449    -0.03700
C320        C  0.17419158  0.28270091  0.03385279    -0.04500
C321        C  0.17434710  0.32779688  0.01484511    -0.04400
C322        C  0.12392187  0.31689909  0.07100965    -0.29800
N323        N  0.09758087  0.31149803  0.06368560     0.16700
C324        C  0.09759278  0.30595784  0.03675553    -0.29800
H325        H  0.08034021  0.29823443  0.02550209     0.18700
C326        C  0.19173237  0.26067992  0.03846875    -0.28800
N327        N  0.18687077  0.24063231  0.01976133     0.15400
C328        C  0.16566939  0.24908534  0.00390835    -0.28700
C329        C  0.19727061  0.33798176  0.00261901    -0.29000
N330        N  0.19446512  0.33626415  0.97532793     0.16000
H331        H  0.21559654  0.34441323  0.01296127     0.18600
C332        C  0.17060576  0.32384607  0.96971502    -0.29000
H333        H  0.16497101  0.31650591  0.94972943     0.18600
H334        H  0.15804019  0.23824804  0.98627139     0.18600
H335        H  0.13108011  0.32001378  0.09155069     0.18700
H336        H  0.20734051  0.25939432  0.05400376     0.18600
N337        N  0.76498798  0.36433436  0.16090949     0.00900
C338        C  0.74497145  0.37768204  0.17442160    -0.09900
C339        C  0.73592678  0.39974065  0.15886507    -0.05500
C340        C  0.75070862  0.39883970  0.13517167    -0.06100
C341        C  0.76841951  0.37693379  0.13699382    -0.10000
N342        N  0.74974957  0.67290870  0.11529497     0.00900
C343        C  0.72983063  0.66474102  0.13172112    -0.09900
C344        C  0.72463919  0.63737426  0.12740235    -0.05500
C345        C  0.74312957  0.62889531  0.10868479    -0.06100
C346        C  0.75805007  0.65091818  0.10124599    -0.10000
N347        N  0.78641352  0.65965365  0.86503219     0.00900
C348        C  0.77171677  0.64104064  0.85102500    -0.09900
C349        C  0.76951155  0.61771178  0.86597305    -0.05500
C350        C  0.78373813  0.62209143  0.89008931    -0.06100
C351        C  0.79408480  0.64841974  0.88914491    -0.10000
N352        N  0.77288867  0.36406089  0.85377415     0.00900
C353        C  0.78854117  0.34976798  0.87187305    -0.09900
C354        C  0.79016235  0.36216462  0.89685308    -0.05500
C355        C  0.77382536  0.38604785  0.89245851    -0.06100
C356        C  0.76312388  0.38728618  0.86539724    -0.10000
C357        C  0.64337800  0.50532805  0.78567768     0.32500
C358        C  0.68466538  0.46662519  0.80249594     0.32500
C359        C  0.63505743  0.47776133  0.79645728    -0.03700
C360        C  0.66477256  0.49612320  0.76346273    -0.04500
C361        C  0.66290542  0.51398405  0.80909231    -0.04400
C362        C  0.65475703  0.45811162  0.80378131    -0.03700
C363        C  0.68548127  0.47692350  0.77175759    -0.04500
C364        C  0.68308045  0.49443021  0.81739979    -0.04400
C365        C  0.64067168  0.43474378  0.80979521    -0.29800
N366        N  0.61369232  0.44057431  0.80731423     0.16700
C367        C  0.61041436  0.46706204  0.80072307    -0.29800
H368        H  0.59110049  0.47740574  0.79758545     0.18700
C369        C  0.70148104  0.47278898  0.74865589    -0.28800
N370        N  0.69277005  0.48879112  0.72742350     0.15400
C371        C  0.67029259  0.50288135  0.73644251    -0.28700
C372        C  0.70314604  0.50840092  0.83071728    -0.29000
N373        N  0.69647552  0.53521324  0.83112665     0.16000
H374        H  0.72258169  0.50002999  0.83723908     0.18600
C375        C  0.67283412  0.53909500  0.81723499    -0.29000
H376        H  0.66490225  0.55890276  0.81119953     0.18600
H377        H  0.65894342  0.51770784  0.72453430     0.18600
H378        H  0.64935881  0.41476024  0.81398043     0.18700
H379        H  0.71795466  0.45835144  0.74677747     0.18600
C380        C  0.85864002  0.31065613  0.98928317     0.32500
C381        C  0.89417130  0.29523207  0.03235340     0.32500
C382        C  0.86054602  0.33023588  0.01411076    -0.03700
C383        C  0.85255162  0.28280411  0.00416955    -0.04500
C384        C  0.88911873  0.30588471  0.98222739    -0.04400
C385        C  0.87874945  0.32272689  0.03553521    -0.03700
C386        C  0.87058551  0.27550358  0.02584369    -0.04500
C387        C  0.90598279  0.29741562  0.00408011    -0.04400
C388        C  0.86786130  0.33358134  0.05896585    -0.29800
N389        N  0.84404608  0.34657713  0.05344564     0.16700
C390        C  0.83948658  0.34456877  0.02629702    -0.29800
H391        H  0.82077335  0.35050546  0.01614320     0.18700
C392        C  0.86369837  0.24980250  0.03461302    -0.28800
N393        N  0.84221497  0.24082949  0.01968903     0.15400
C394        C  0.83560293  0.26034980  0.00094376    -0.28700
C395        C  0.92549670  0.28093564  0.99324877    -0.29000
N396        N  0.92505588  0.28235999  0.96629073     0.16000
H397        H  0.93862396  0.26694199  0.00427924     0.18600
C398        C  0.90229989  0.29663006  0.95875190    -0.29000
H399        H  0.89487665  0.29845676  0.93809768     0.18600
H400        H  0.82047257  0.25745134  0.98522467     0.18600
H401        H  0.87505812  0.32920019  0.07924113     0.18700
H402        H  0.87390586  0.23823581  0.05045301     0.18600
C403        C  0.86612295  0.69597638  0.97416052     0.32500
C404        C  0.90262983  0.71272469  0.01414844     0.32500
C405        C  0.89554912  0.69812265  0.96595724    -0.03700
C406        C  0.86111692  0.72484585  0.98677713    -0.04500
C407        C  0.86914511  0.67743645  0.99903535    -0.04400
C408        C  0.91396023  0.70581474  0.98610303    -0.03700
C409        C  0.87923771  0.73291356  0.00738453    -0.04500
C410        C  0.88658632  0.68643183  0.02040899    -0.04400
C411        C  0.93928535  0.70375684  0.97518165    -0.29800
N412        N  0.93653155  0.69591530  0.94886990     0.16700
C413        C  0.90988061  0.69277469  0.94302023    -0.29800
H414        H  0.90151651  0.68776079  0.92324681     0.18700
C415        C  0.87105578  0.75855584  0.01631177    -0.28800
N416        N  0.84926201  0.76680644  0.00116299     0.15400
C417        C  0.84410530  0.74708766  0.98237413    -0.28700
C418        C  0.87336530  0.67870973  0.04380141    -0.29000
N419        N  0.85137832  0.66362138  0.03710363     0.16000
H420        H  0.87682381  0.68734155  0.06378223     0.18600
C421        C  0.84913641  0.66241438  0.00997921    -0.29000
H422        H  0.83099232  0.65601317  0.99921763     0.18600
H423        H  0.82959865  0.74967826  0.96598974     0.18600
H424        H  0.95827195  0.70789581  0.98553532     0.18700
H425        H  0.88005504  0.77009845  0.03281542     0.18600
C426        C  0.61491706  0.51219076  0.21326615     0.32500
C427        C  0.65283801  0.47852474  0.18977346     0.32500
C428        C  0.63360100  0.52579083  0.19304557    -0.03700
C429        C  0.63583689  0.49844327  0.23318774    -0.04500
C430        C  0.60384338  0.48789132  0.19667005    -0.04400
C431        C  0.65288068  0.50870540  0.18109109    -0.03700
C432        C  0.65415634  0.48045130  0.22081616    -0.04500
C433        C  0.62330108  0.46989512  0.18542606    -0.04400
C434        C  0.67032355  0.52525069  0.16735985    -0.29800
N435        N  0.66201999  0.55164056  0.17058515     0.16700
C436        C  0.63979982  0.55227833  0.18644114    -0.29800
H437        H  0.63001326  0.57069463  0.19398241     0.18700
C438        C  0.67343134  0.47285217  0.23958772    -0.28800
N439        N  0.67000854  0.48790446  0.26231310     0.15400
C440        C  0.64753814  0.50414575  0.25854920    -0.28700
C441        C  0.61290023  0.44396794  0.18884738    -0.29000
N442        N  0.58791294  0.44582912  0.19931603     0.16000
H443        H  0.62466260  0.42512406  0.18873148     0.18600
C444        C  0.58207526  0.47239148  0.20371024    -0.29000
H445        H  0.56540583  0.47946349  0.21608682     0.18600
H446        H  0.64140053  0.52031190  0.27231089     0.18600
H447        H  0.68856166  0.51879986  0.15704677     0.18700
H448        H  0.69009500  0.45867855  0.23635707     0.18600
N449        N  0.42600788  0.18695174  0.76585298     0.00900
C450        C  0.43944696  0.16693314  0.75149305    -0.09900
C451        C  0.43280968  0.14195387  0.76320453    -0.05500
C452        C  0.41415819  0.14595617  0.78331770    -0.06100
C453        C  0.40906959  0.17363504  0.78299865    -0.10000
N454        N  0.67702498  0.14297204  0.75707201     0.00900
C455        C  0.68919541  0.12777326  0.77680643    -0.09900
C456        C  0.67803111  0.10166252  0.77830865    -0.05500
C457        C  0.65794155  0.10144042  0.75807316    -0.06100
C458        C  0.65768911  0.12714231  0.74579137    -0.10000
N459        N  0.61631127  0.81796473  0.77132589     0.00900
C460        C  0.62700940  0.83729309  0.78797024    -0.09900
C461        C  0.61148646  0.86096284  0.78746780    -0.05500
C462        C  0.59088235  0.85533843  0.76878179    -0.06100
C463        C  0.59449711  0.82908163  0.75883915    -0.10000
N464        N  0.36842138  0.86113653  0.77225838     0.00900
C465        C  0.35655291  0.87923255  0.78982068    -0.09900
C466        C  0.36985083  0.90430544  0.79167978    -0.05500
C467        C  0.39133210  0.90096763  0.77368438    -0.06100
C468        C  0.38996068  0.87448738  0.76230885    -0.10000
C469        C  0.48591055  0.76363999  0.63861347     0.32500
C470        C  0.52752134  0.77957847  0.67264562     0.32500
C471        C  0.47887737  0.78685080  0.65880727    -0.03700
C472        C  0.49753669  0.74126100  0.65819894    -0.04500
C473        C  0.51159147  0.77436564  0.62500590    -0.04400
C474        C  0.50029005  0.79531807  0.67518473    -0.03700
C475        C  0.51883171  0.74961342  0.67514019    -0.04500
C476        C  0.53356796  0.78121525  0.64185115    -0.04400
C477        C  0.48995928  0.81333181  0.69412690    -0.29800
N478        N  0.46256872  0.81489629  0.69136014     0.16700
C479        C  0.45557256  0.79822581  0.67011686    -0.29800
H480        H  0.43500792  0.79337591  0.66418487     0.18700
C481        C  0.52592195  0.72800047  0.69166905    -0.28800
N482        N  0.50921427  0.70681188  0.68625256     0.15400
C483        C  0.49165009  0.71471900  0.66603558    -0.28700
C484        C  0.55639258  0.77542098  0.62603265    -0.29000
N485        N  0.54862606  0.76888371  0.60013051     0.16000
H486        H  0.57702268  0.77358198  0.63356418     0.18600
C487        C  0.52130126  0.76866163  0.59961148    -0.29000
H488        H  0.50904272  0.76273776  0.58231295     0.18600
H489        H  0.47520821  0.70240021  0.65829308     0.18600
H490        H  0.50175180  0.82385237  0.70944619     0.18700
H491        H  0.54195256  0.72782101  0.70686335     0.18600
C492        C  0.33380247  0.99500745  0.86815846     0.32500
C493        C  0.31451263  0.03746793  0.90141402     0.32500
C494        C  0.34870355  0.02309565  0.86653036    -0.03700
C495        C  0.30432547  0.00430624  0.86326717    -0.04500
C496        C  0.33275759  0.98906413  0.89940661    -0.04400
C497        C  0.33892837  0.04451147  0.88336038    -0.03700
C498        C  0.29451090  0.02575413  0.87966334    -0.04500
C499        C  0.32501536  0.01158898  0.91581332    -0.04400
C500        C  0.34782309  0.06877024  0.87214830    -0.29800
N501        N  0.36319407  0.06327555  0.84999373     0.16700
C502        C  0.36326294  0.03566206  0.84609855    -0.29800
H503        H  0.37217161  0.02546343  0.82879526     0.18700
C504        C  0.26888880  0.03222972  0.86963869    -0.28800
N505        N  0.26275159  0.01483198  0.84895465     0.15400
C506        C  0.28418646  0.99778015  0.84486592    -0.28700
C507        C  0.31570256  0.00190498  0.93996492    -0.29000
N508        N  0.31363003  0.97469758  0.93861521     0.16000
H509        H  0.30651335  0.01410159  0.95582405     0.18600
C510        C  0.32277812  0.96659597  0.91381175    -0.29000
H511        H  0.31916357  0.94652636  0.90530415     0.18600
H512        H  0.28511591  0.98214839  0.82928151     0.18600
H513        H  0.34184827  0.08914907  0.87854726     0.18700
H514        H  0.25593424  0.04897354  0.87616728     0.18600
C515        C  0.71041081  0.01195283  0.85405704     0.32500
C516        C  0.72398987  0.96891612  0.88789250     0.32500
C517        C  0.69303969  0.98579441  0.85122507    -0.03700
C518        C  0.73953111  0.00006738  0.85112288    -0.04500
C519        C  0.71024956  0.01831310  0.88532877    -0.04400
C520        C  0.70008898  0.96434410  0.86838274    -0.03700
C521        C  0.74665914  0.97875086  0.86883102    -0.04500
C522        C  0.71626568  0.99581624  0.90209612    -0.04400
C523        C  0.68426167  0.94238208  0.86135858    -0.29800
N524        N  0.66736052  0.94945819  0.84041681     0.16700
C525        C  0.67274312  0.97598077  0.83396623    -0.29800
H526        H  0.66301743  0.98727440  0.81766436     0.18700
C527        C  0.77414059  0.97402520  0.86565233    -0.28800
N528        N  0.78318114  0.98935397  0.84504982     0.15400
C529        C  0.76242683  0.00578717  0.83629586    -0.28700
C530        C  0.72588029  0.00554517  0.92657990    -0.29000
N531        N  0.72704434  0.03305577  0.92607109     0.16000
H532        H  0.73332508  0.99293498  0.94304394     0.18600
C533        C  0.71871466  0.04096276  0.90073159    -0.29000
H534        H  0.72083131  0.06147078  0.89307823     0.18600
H535        H  0.76407027  0.02096572  0.82059422     0.18600
H536        H  0.68591023  0.92221123  0.87013645     0.18700
H537        H  0.78730741  0.96098268  0.87764707     0.18600
C538        C  0.50574281  0.18626853  0.65411198     0.32500
C539        C  0.54327929  0.20753284  0.61876981     0.32500
C540        C  0.49734997  0.18624508  0.62369641    -0.03700
C541        C  0.51385485  0.21601625  0.65873762    -0.04500
C542        C  0.53436312  0.17246399  0.65415638    -0.04400
C543        C  0.51623111  0.19797937  0.60656331    -0.03700
C544        C  0.53285055  0.22725945  0.64121307    -0.04500
C545        C  0.55306212  0.18250517  0.63516362    -0.04400
C546        C  0.50184560  0.20898909  0.58534441    -0.29800
N547        N  0.47571563  0.20133872  0.58585585     0.16700
C548        C  0.47249324  0.18820318  0.60996493    -0.29800
H549        H  0.45345573  0.18192331  0.61813990     0.18700
C550        C  0.53904236  0.25273000  0.65198565    -0.28800
N551        N  0.52482795  0.25629502  0.67525103     0.15400
C552        C  0.50955825  0.23411126  0.67933914    -0.28700
C553        C  0.57885057  0.17702340  0.64545279    -0.29000
N554        N  0.57680867  0.16514699  0.66993396     0.16000
H555        H  0.59765590  0.18418398  0.63724570     0.18600
C556        C  0.55034804  0.16392724  0.67597150    -0.29000
H557        H  0.54362180  0.16007002  0.69628420     0.18600
H558        H  0.49729956  0.23086584  0.69695096     0.18600
H559        H  0.50976273  0.22440401  0.57220639     0.18700
H560        H  0.55370506  0.26691752  0.64448391     0.18600
O561        O  0.80807834  0.77833871  0.73656643    -0.78400
O562        O  0.77837661  0.81785384  0.85391984    -0.63100
O563        O  0.80002148  0.81036528  0.78122755    -1.09700
C564        C  0.87871641  0.77397299  0.82614896     1.08500
O565        O  0.81648177  0.83922284  0.85916725    -0.76300
O566        O  0.86391862  0.83597638  0.83385037    -0.63900
Ni567      Ni  0.77787999  0.78822257  0.75856525     1.34900
C568        C  0.86183138  0.84375691  0.80952883     0.87200
O569        O  0.75584268  0.83080327  0.80674491    -0.76900
O570        O  0.74477693  0.79797851  0.77704531    -0.87100
C571        C  0.79420130  0.83166672  0.86861610     0.86800
O572        O  0.78506093  0.75756111  0.78139145    -0.65300
O573        O  0.86839386  0.78315212  0.84796663    -0.84600
C574        C  0.77849393  0.75719798  0.80614385     0.87600
C575        C  0.73872455  0.81807808  0.79249846     1.09200
H576        H  0.81832419  0.77675085  0.83215094     0.41000
O577        O  0.82135131  0.79562075  0.82627620    -1.07300
O578        O  0.84834762  0.83064748  0.79201340    -0.63900
Ni579      Ni  0.83452586  0.79456053  0.79102663     1.26300
O580        O  0.77097926  0.77871189  0.81857294    -0.64200
O581        O  0.86891964  0.77871549  0.80238162    -0.76500
C582        C  0.83124023  0.78916474  0.73480043     0.87000
O583        O  0.84591756  0.79501484  0.75510899    -0.63600
Ni584      Ni  0.84262510  0.81117246  0.85378336     1.27400
Ni585      Ni  0.78829163  0.81367940  0.81732209     1.26100
H586        H  0.80177806  0.82848513  0.77316819     0.41500
O587        O  0.91393258  0.18445631  0.84870002    -0.78400
O588        O  0.79955118  0.18383074  0.82273108    -0.63100
O589        O  0.86403189  0.18871692  0.86453889    -1.09700
C590        C  0.86658344  0.09359195  0.84399046     1.08500
O591        O  0.78867239  0.15284656  0.85220727    -0.76300
O592        O  0.81808755  0.12189926  0.88525471    -0.63900
Ni593      Ni  0.89029602  0.21432057  0.85511558     1.34900
C594        C  0.83405408  0.13227371  0.90255388     0.87200
O595        O  0.82530307  0.22598961  0.84700944    -0.76900
O596        O  0.86530938  0.24381385  0.86077958    -0.87100
C597        C  0.78248914  0.16734347  0.83188853     0.86800
O598        O  0.88553758  0.21795548  0.81712218    -0.65300
O599        O  0.84080360  0.09574328  0.84150073    -0.84600
C600        C  0.86886460  0.20783000  0.80039885     0.87600
C601        C  0.83993874  0.24583090  0.85533914     1.09200
H602        H  0.84735076  0.14610861  0.82126194     0.41000
O603        O  0.84183714  0.14976790  0.83971846    -1.07300
O604        O  0.85617976  0.14380730  0.89611345    -0.63900
Ni605      Ni  0.87387728  0.15047181  0.86133927     1.26300
O606        O  0.84892820  0.19379566  0.80797154    -0.64200
O607        O  0.88174658  0.11188265  0.85504595    -0.76500
C608        C  0.92272624  0.17362381  0.87017507     0.87000
O609        O  0.90815745  0.15534716  0.88081981    -0.63600
Ni610      Ni  0.81480796  0.12428893  0.84704992     1.27400
Ni611      Ni  0.83248948  0.18767704  0.84280397     1.26100
H612        H  0.85876869  0.19265660  0.88297092     0.41500
N613        N  0.88701634  0.97186661  0.79811201     0.00900
C614        C  0.90263922  0.99363126  0.79372724    -0.09900
C615        C  0.92228407  0.98700234  0.77506409    -0.05500
C616        C  0.91941220  0.95964047  0.76831996    -0.06100
C617        C  0.89758848  0.95092960  0.78336177    -0.10000
N618        N  0.04318041  0.22109167  0.89278487     0.00900
C619        C  0.06268669  0.23597123  0.90501887    -0.09900
C620        C  0.05294319  0.24980289  0.92776179    -0.05500
C621        C  0.02556714  0.24224470  0.92910615    -0.06100
C622        C  0.02101737  0.22396940  0.90786088    -0.10000
O623        O  0.21177876  0.23955429  0.77533578    -0.78400
O624        O  0.27516826  0.17566030  0.86862343    -0.63100
O625        O  0.23627873  0.19736174  0.80457034    -1.09700
C626        C  0.16494854  0.19822410  0.86888989     1.08500
O627        O  0.24444551  0.14523634  0.86532182    -0.76300
O628        O  0.19234151  0.14137939  0.85125602    -0.63900
Ni629      Ni  0.24788588  0.22863761  0.78554629     1.34900
C630        C  0.18888626  0.14252332  0.82593442     0.87200
O631        O  0.28885778  0.18310432  0.81744482    -0.76900
O632        O  0.28591270  0.22091421  0.79230288    -0.87100
C633        C  0.26386430  0.15514060  0.87864692     0.86800
O634        O  0.24488270  0.25122836  0.81652102    -0.65300
O635        O  0.18016262  0.18346184  0.88427919    -0.84600
C636        C  0.25713778  0.24807087  0.83896969     0.87600
C637        C  0.29915918  0.20088101  0.80254530     1.09200
H638        H  0.22377560  0.20891026  0.86545273     0.41000
O639        O  0.22324373  0.19270199  0.85407369    -1.07300
O640        O  0.19513822  0.16337629  0.81248811    -0.63900
Ni641      Ni  0.20253575  0.20048725  0.82325774     1.26300
O642        O  0.26650032  0.22495551  0.84688757    -0.64200
O643        O  0.17001610  0.20334506  0.84401222    -0.76500
C644        C  0.18870565  0.22847626  0.77593281     0.87000
O645        O  0.18262441  0.20967207  0.79195060    -0.63600
Ni646      Ni  0.21227826  0.16359987  0.87567231     1.27400
Ni647      Ni  0.25677330  0.18777346  0.83628896     1.26100
H648        H  0.23617992  0.18199330  0.79216310     0.41500
N649        N  0.16548896  0.01911654  0.78560409     0.00900
C650        C  0.15097794  0.99777608  0.77629221    -0.09900
C651        C  0.12859872  0.00728202  0.76150528    -0.05500
C652        C  0.12895675  0.03576937  0.76289666    -0.06100
C653        C  0.15221585  0.04217386  0.77773502    -0.10000
O654        O  0.25323018  0.82481504  0.83199354    -0.78400
O655        O  0.13899068  0.79761780  0.82777974    -0.63100
O656        O  0.20206759  0.83475790  0.81309942    -1.09700
C657        C  0.18845756  0.88120786  0.89282158     1.08500
O658        O  0.11558164  0.83294961  0.84437862    -0.76300
O659        O  0.14392349  0.87869109  0.83293085    -0.63900
Ni660      Ni  0.23271868  0.81512033  0.80042810     1.34900
C661        C  0.16460226  0.89186385  0.82593435     0.87200
O662        O  0.17056643  0.79869060  0.78528147    -0.76900
O663        O  0.21228811  0.80584116  0.76879440    -0.87100
C664        C  0.11690373  0.80906741  0.83372969     0.86800
O665        O  0.22740161  0.78005429  0.81588731    -0.65300
O666        O  0.16343799  0.88098035  0.88561138    -0.84600
C667        C  0.21038753  0.77187236  0.83285235     0.87600
C668        C  0.18723925  0.80019591  0.76584260     1.09200
H669        H  0.17454878  0.82039027  0.86895033     0.41000
O670        O  0.17157904  0.83340796  0.85450243    -1.07300
O671        O  0.18863927  0.88450626  0.83276435    -0.63900
Ni672      Ni  0.20451953  0.85105865  0.84754854     1.26300
O673        O  0.18832046  0.78455344  0.83715068    -0.64200
O674        O  0.20623404  0.86633700  0.88179901    -0.76500
C675        C  0.25772087  0.84995883  0.83554570     0.87000
O676        O  0.23834461  0.86627685  0.84032893    -0.63600
Ni677      Ni  0.14129311  0.85600432  0.86385362     1.27400
Ni678      Ni  0.17070299  0.81547221  0.82021296     1.26100
H679        H  0.19763983  0.84852720  0.79971904     0.41500
N680        N  0.00179810  0.74126427  0.81958295     0.00900
C681        C  0.98448556  0.72734305  0.83503910    -0.09900
C682        C  0.99863029  0.71518821  0.85651051    -0.05500
C683        C  0.02548562  0.72228838  0.85403752    -0.06100
C684        C  0.02648052  0.73904048  0.83148104    -0.10000
N685        N  0.21321435  0.88520268  0.01332829     0.00900
C686        C  0.22362515  0.89050669  0.03792886    -0.09900
C687        C  0.24276878  0.91082806  0.03783746    -0.05500
C688        C  0.24373175  0.91931155  0.01085150    -0.06100
C689        C  0.22497024  0.90314035  0.99677872    -0.10000
O690        O  0.16020067  0.81873939  0.26273124    -0.78400
O691        O  0.17074225  0.84629743  0.14667720    -0.63100
O692        O  0.16804425  0.80587874  0.21087286    -1.09700
C693        C  0.26160931  0.82865606  0.21781949     1.08500
O694        O  0.20343137  0.81710476  0.14052080    -0.76300
O695        O  0.23456423  0.78712177  0.17082655    -0.63900
Ni696      Ni  0.13776935  0.80657183  0.23336785     1.34900
C697        C  0.22631989  0.77164440  0.18915259     0.87200
O698        O  0.13232139  0.81594677  0.16800278    -0.76900
O699        O  0.11501038  0.79430163  0.20375906    -0.87100
C700        C  0.18925415  0.83677939  0.13184023     0.86800
O701        O  0.12620211  0.84326775  0.22773600    -0.65300
O702        O  0.25970833  0.83143325  0.19206620    -0.84600
C703        C  0.13550337  0.86269336  0.21404728     0.87600
C704        C  0.11453077  0.80096538  0.17869514     1.09200
H705        H  0.20549429  0.85439102  0.19468935     0.41000
O706        O  0.20424042  0.83506197  0.19078100    -1.07300
O707        O  0.21522233  0.78047191  0.21047530    -0.63900
Ni708      Ni  0.20386359  0.81583157  0.22345692     1.26300
O709        O  0.15362457  0.85947205  0.19607578    -0.64200
O710        O  0.24112770  0.82439021  0.23297974    -0.76500
C711        C  0.17952587  0.80351993  0.27108336     0.87000
O712        O  0.20013605  0.79862223  0.25690420    -0.63600
Ni713      Ni  0.23140223  0.82525416  0.16585048     1.27400
Ni714      Ni  0.16784921  0.82651514  0.17920279     1.26100
H715        H  0.16872186  0.78714124  0.20468932     0.41500
N716        N  0.99980554  0.77603502  0.12782864     0.00900
C717        C  0.02277643  0.76849161  0.11486629    -0.09900
C718        C  0.01722425  0.75760486  0.08887449    -0.05500
C719        C  0.98843629  0.75817741  0.08651775    -0.06100
C720        C  0.97905669  0.77051101  0.11057123    -0.10000
O721        O  0.87201611  0.87058543  0.20305024    -0.78400
O722        O  0.81411607  0.78603296  0.13350472    -0.63100
O723        O  0.82898942  0.84685538  0.17815912    -1.09700
C724        C  0.82957519  0.77942402  0.24654332     1.08500
O725        O  0.78073160  0.77802195  0.16099903    -0.76300
O726        O  0.77248420  0.79903779  0.20824218    -0.63900
Ni727      Ni  0.85489859  0.87333112  0.16805120     1.34900
C728        C  0.77510683  0.82349895  0.21592666     0.87200
O729        O  0.81682286  0.83876116  0.12448666    -0.76900
O730        O  0.83717153  0.87869184  0.13327778    -0.87100
C731        C  0.79293167  0.77335481  0.13909369     0.86800
O732        O  0.88154794  0.84853681  0.15289322    -0.65300
O733        O  0.81323672  0.76609686  0.23127687    -0.84600
C734        C  0.88051686  0.82362343  0.14529320     0.87600
C735        C  0.82179701  0.86340202  0.11892097     1.09200
H736        H  0.84308999  0.78422303  0.18545084     0.41000
O737        O  0.82695326  0.79554773  0.18686774    -1.07300
O738        O  0.79793571  0.83444533  0.21934892    -0.63900
Ni739      Ni  0.83456734  0.82520600  0.21011919     1.26300
O740        O  0.85904003  0.80982763  0.14608316    -0.64200
O741        O  0.83920621  0.80262830  0.24092933    -0.76500
C742        C  0.85799362  0.87388022  0.22432700     0.87000
O743        O  0.84248807  0.85540237  0.23190124    -0.63600
Ni744      Ni  0.79772857  0.77243637  0.19571347     1.27400
Ni745      Ni  0.82214444  0.81685807  0.15513438     1.26100
H746        H  0.81210128  0.85696237  0.17957487     0.41500
N747        N  0.78489438  0.86405469  0.99791302     0.00900
C748        C  0.77700394  0.88369361  0.01525847    -0.09900
C749        C  0.75957028  0.90210914  0.00265459    -0.05500
C750        C  0.75770177  0.89466486  0.97551387    -0.06100
C751        C  0.77304420  0.87043814  0.97390443    -0.10000
O752        O  0.16430600  0.11916716  0.22360100    -0.78400
O753        O  0.20765198  0.23008853  0.20151122    -0.63100
O754        O  0.15718717  0.17245592  0.21252266    -1.09700
C755        C  0.18500686  0.15139193  0.12253192     1.08500
O756        O  0.18149447  0.24066956  0.16642016    -0.76300
O757        O  0.14451886  0.20927157  0.14090400    -0.63900
Ni758      Ni  0.15826811  0.15136159  0.24445103     1.34900
C759        C  0.12623885  0.19399859  0.14986423     0.87200
O760        O  0.17776754  0.21531462  0.24561521    -0.76900
O761        O  0.15340069  0.18318472  0.26654183    -0.87100
C762        C  0.20084470  0.24668533  0.18259652     0.86800
O763        O  0.19594781  0.15120808  0.25203886    -0.65300
O764        O  0.18625870  0.17736102  0.12019285    -0.84600
C765        C  0.21615836  0.15887168  0.23878167     0.87600
C766        C  0.16438157  0.20661521  0.26591696     1.09200
H767        H  0.20565997  0.17745090  0.17261542     0.41000
O768        O  0.18743974  0.18486092  0.17389768    -1.07300
O769        O  0.13138640  0.17227478  0.16326228    -0.63900
Ni770      Ni  0.16394156  0.15459180  0.17800398     1.26300
O771        O  0.21412401  0.17775688  0.22102303    -0.64200
O772        O  0.17428019  0.13916212  0.14279985    -0.76500
C773        C  0.14579836  0.11021448  0.20826015     0.87000
O774        O  0.14109183  0.12304756  0.18610331    -0.63600
Ni775      Ni  0.18313709  0.20839557  0.14384546     1.27400
Ni776      Ni  0.18322611  0.20056693  0.20917082     1.26100
H777        H  0.13952117  0.18109276  0.21181775     0.41500
N778        N  0.99640685  0.23154712  0.15156547     0.00900
C779        C  0.97373626  0.24217687  0.13946897    -0.09900
C780        C  0.97949501  0.26064105  0.11821497    -0.05500
C781        C  0.00895725  0.26245733  0.11962414    -0.06100
C782        C  0.01772678  0.24195438  0.13848167    -0.10000
N783        N  0.10567568  0.98872750  0.23676169     0.00900
C784        C  0.09300435  0.01162204  0.24563709    -0.09900
C785        C  0.07079233  0.00544108  0.26246729    -0.05500
C786        C  0.06964755  0.97513517  0.26233188    -0.06100
C787        C  0.09177904  0.96719731  0.24596507    -0.10000
N788        N  0.24806895  0.14031521  0.01075707     0.00900
C789        C  0.24543763  0.11967931  0.02849854    -0.09900
C790        C  0.26079981  0.09703219  0.02002409    -0.05500
C791        C  0.27329914  0.10401444  0.99549584    -0.06100
C792        C  0.26477397  0.13105130  0.99100431    -0.10000
N793        N  0.83789479  0.00009594  0.27343482     0.00900
C794        C  0.85014828  0.01918050  0.28902837    -0.09900
C795        C  0.87096306  0.00736194  0.30477525    -0.05500
C796        C  0.87042356  0.97950332  0.29894278    -0.06100
C797        C  0.84999664  0.97599473  0.27950764    -0.10000
O798        O  0.74440187  0.19371309  0.24655325    -0.78400
O799        O  0.85741355  0.21882369  0.19335850    -0.63100
O800        O  0.78454675  0.20068238  0.20838311    -1.09700
C801        C  0.82804201  0.11717079  0.23248512     1.08500
O802        O  0.86291199  0.18162594  0.16903806    -0.76300
O803        O  0.83012042  0.13872191  0.16950529    -0.63900
Ni804      Ni  0.76749751  0.22294872  0.23514902     1.34900
C805        C  0.80540460  0.14330495  0.16387647     0.87200
O806        O  0.81001604  0.24446310  0.18792082    -0.76900
O807        O  0.78637316  0.25576022  0.22456723    -0.87100
C808        C  0.87077398  0.20512202  0.17621600     0.86800
O809        O  0.79467637  0.21363747  0.26202538    -0.65300
O810        O  0.84822204  0.12609543  0.21976190    -0.84600
C811        C  0.81943092  0.22008843  0.25990476     0.87600
C812        C  0.79659380  0.26154647  0.20173458     1.09200
H813        H  0.83766549  0.17710212  0.23280845     0.41000
O814        O  0.82976250  0.17557844  0.21493239    -1.07300
O815        O  0.78896320  0.15327732  0.18120361    -0.63900
Ni816      Ni  0.79325028  0.16413951  0.21905307     1.26300
O817        O  0.82951869  0.22564958  0.23702337    -0.64200
O818        O  0.80416256  0.12787984  0.23092047    -0.76500
C819        C  0.73834004  0.17038586  0.23662151     0.87000
O820        O  0.75551422  0.15546195  0.22384919    -0.63600
Ni821      Ni  0.85458755  0.15404390  0.19498187     1.27400
Ni822      Ni  0.82098912  0.21043033  0.20139860     1.26100
H823        H  0.77390941  0.20105728  0.19185798     0.41500
N824        N  0.78861659  0.13759884  0.02956495     0.00900
C825        C  0.78344848  0.12166637  0.00759130    -0.09900
C826        C  0.76631936  0.10028925  0.01461676    -0.05500
C827        C  0.76156913  0.10268368  0.04273408    -0.06100
C828        C  0.77581082  0.12602370  0.05090299    -0.10000
N829        N  0.17934439  0.72416392  0.37868078     0.00900
C830        C  0.16277267  0.73907315  0.36242810    -0.09900
C831        C  0.13742359  0.74195430  0.37284573    -0.05500
C832        C  0.13859250  0.72755202  0.39685880    -0.06100
C833        C  0.16485627  0.71632598  0.40045645    -0.10000
N834        N  0.16683453  0.76732971  0.64802718     0.00900
C835        C  0.14918868  0.78547294  0.65906289    -0.09900
C836        C  0.12429119  0.78533529  0.64551134    -0.05500
C837        C  0.12692666  0.76489620  0.62576481    -0.06100
C838        C  0.15341344  0.75446004  0.62791054    -0.10000
N839        N  0.84377631  0.76553230  0.62015934     0.00900
C840        C  0.85952461  0.78663043  0.62818104    -0.09900
C841        C  0.88166567  0.78866471  0.61135474    -0.05500
C842        C  0.87906309  0.76742878  0.59294918    -0.06100
C843        C  0.85588205  0.75366491  0.59898370    -0.10000
N844        N  0.85398276  0.72244724  0.36392042     0.00900
C845        C  0.86888793  0.73989232  0.34865793    -0.09900
C846        C  0.89432178  0.74630234  0.36021629    -0.05500
C847        C  0.89358259  0.72976455  0.38447929    -0.06100
C848        C  0.86849854  0.71498141  0.38651680    -0.10000
C849        C  0.82412244  0.63451761  0.47229931     0.32500
C850        C  0.80646398  0.59456846  0.50930966     0.32500
C851        C  0.82924428  0.63999145  0.50262013    -0.03700
C852        C  0.79291115  0.62907504  0.47273210    -0.04500
C853        C  0.83652310  0.60579069  0.46990562    -0.04400
C854        C  0.82041036  0.62013595  0.52171201    -0.03700
C855        C  0.78411183  0.60903537  0.49154223    -0.04500
C856        C  0.82791106  0.58590120  0.48849131    -0.04400
C857        C  0.81570628  0.63455174  0.54552291    -0.29800
N858        N  0.82141023  0.66123794  0.54143496     0.16700
C859        C  0.82853343  0.66453923  0.51550423    -0.29800
H860        H  0.83133356  0.68412961  0.50606939     0.18700
C861        C  0.75848198  0.61768312  0.49968417    -0.28800
N862        N  0.75050759  0.64086099  0.48655967     0.15400
C863        C  0.77158578  0.64797048  0.47055264    -0.28700
C864        C  0.83114366  0.56111682  0.47594493    -0.29000
N865        N  0.83911663  0.56515494  0.45018523     0.16000
H866        H  0.82137997  0.54264857  0.48246968     0.18600
C867        C  0.84382380  0.59197107  0.44688592    -0.29000
H868        H  0.84594901  0.60130582  0.42723039     0.18600
H869        H  0.77269475  0.66684795  0.45944079     0.18600
H870        H  0.80693755  0.62660486  0.56377851     0.18700
H871        H  0.74800239  0.60934988  0.51679484     0.18600
C872        C  0.01230259  0.86987749  0.29477179     0.32500
C873        C  0.97813908  0.82695388  0.31173717     0.32500
C874        C  0.98887686  0.87725112  0.31361822    -0.03700
C875        C  0.99763281  0.85281998  0.27196318    -0.04500
C876        C  0.02616941  0.84607472  0.31116086    -0.04400
C877        C  0.97145498  0.85641567  0.32170618    -0.03700
C878        C  0.98038019  0.83145868  0.28029126    -0.04500
C879        C  0.00901340  0.82450851  0.31904447    -0.04400
C880        C  0.94729494  0.86967697  0.32838645    -0.29800
N881        N  0.95012053  0.89710823  0.32573962     0.16700
C882        C  0.97547939  0.90171092  0.31710526    -0.29800
H883        H  0.98202326  0.92114305  0.30934195     0.18700
C884        C  0.97772995  0.81406224  0.25783167    -0.28800
N885        N  0.99209836  0.82358181  0.23632300     0.15400
C886        C  0.00505610  0.84637624  0.24550547    -0.28700
C887        C  0.02601395  0.80289541  0.32596980    -0.29000
N888        N  0.05225368  0.81072680  0.32575193     0.16000
H889        H  0.01986291  0.78226905  0.32985574     0.18600
C890        C  0.05266244  0.83684872  0.31608514    -0.29000
H891        H  0.07090491  0.84786471  0.31167551     0.18600
H892        H  0.02073678  0.85663088  0.23457143     0.18600
H893        H  0.92804489  0.85998876  0.33141509     0.18700
H894        H  0.96676161  0.79513334  0.25791418     0.18600
C895        C  0.99391680  0.89017462  0.70471890     0.32500
C896        C  0.03558944  0.85942292  0.68232728     0.32500
C897        C  0.02167478  0.90339140  0.70419677    -0.03700
C898        C  0.99983606  0.86221947  0.71755387    -0.04500
C899        C  0.98959333  0.88203846  0.67484366    -0.04400
C900        C  0.04328529  0.88809160  0.69398249    -0.03700
C901        C  0.02133137  0.84710306  0.70700755    -0.04500
C902        C  0.01097205  0.86623833  0.66313962    -0.04400
C903        C  0.06628324  0.90300206  0.70110277    -0.29800
N904        N  0.05862865  0.92711426  0.71313699     0.16700
C905        C  0.03128979  0.92740499  0.71453308    -0.29800
H906        H  0.01900256  0.94367114  0.72309433     0.18700
C907        C  0.02292922  0.82324263  0.72165736    -0.28800
N908        N  0.00195069  0.82256748  0.73922197     0.15400
C909        C  0.98763980  0.84636248  0.73664316    -0.28700
C910        C  0.99873961  0.84973485  0.64367578    -0.29000
N911        N  0.97157219  0.85443705  0.64326654     0.16000
H912        H  0.00865951  0.83322096  0.63283774     0.18600
C913        C  0.96598935  0.87315597  0.66264833    -0.29000
H914        H  0.94583586  0.87656471  0.67045945     0.18600
H915        H  0.96925911  0.85164583  0.74725400     0.18600
H916        H  0.08708516  0.89607593  0.69945661     0.18700
H917        H  0.03846618  0.80757293  0.71981214     0.18600
C918        C  0.21127399  0.64868757  0.49022869     0.32500
C919        C  0.22904768  0.61101191  0.52754341     0.32500
C920        C  0.20311499  0.61884454  0.48484012    -0.03700
C921        C  0.24241109  0.64661349  0.49408591    -0.04500
C922        C  0.20224455  0.65371478  0.51969455    -0.04400
C923        C  0.21183662  0.59986180  0.50401830    -0.03700
C924        C  0.25133865  0.62730196  0.51328026    -0.04500
C925        C  0.21105120  0.63425816  0.53890839    -0.04400
C926        C  0.21287211  0.57477385  0.49125609    -0.29800
N927        N  0.20642976  0.57760142  0.46452937     0.16700
C928        C  0.20025803  0.60445416  0.46077388    -0.29800
H929        H  0.19748184  0.61373960  0.44118793     0.18700
C930        C  0.27640185  0.63567129  0.52258065    -0.28800
N931        N  0.28383091  0.65844127  0.50924114     0.15400
C932        C  0.26275494  0.66587298  0.49259711    -0.28700
C933        C  0.21070119  0.64717245  0.56401741    -0.29000
N934        N  0.20182873  0.67321997  0.56070737     0.16000
H935        H  0.21810035  0.63891155  0.58305866     0.18600
C936        C  0.19853635  0.67774036  0.53392451    -0.29000
H937        H  0.19481720  0.69771821  0.52530905     0.18600
H938        H  0.26152222  0.68466079  0.48119824     0.18600
H939        H  0.22031501  0.55641593  0.50089567     0.18700
H940        H  0.28747298  0.62697925  0.53962470     0.18600
N941        N  0.36660549  0.28143339  0.50038102     0.00900
C942        C  0.38036969  0.26982371  0.52123023    -0.09900
C943        C  0.40018591  0.25165199  0.51109899    -0.05500
C944        C  0.39873002  0.25274190  0.48243632    -0.06100
C945        C  0.37736838  0.27133921  0.47720693    -0.10000
N946        N  0.27186158  0.49665587  0.34206455     0.00900
C947        C  0.26348691  0.51907903  0.35612482    -0.09900
C948        C  0.24373578  0.51189483  0.37464356    -0.05500
C949        C  0.24082823  0.48399676  0.37172448    -0.06100
C950        C  0.25878889  0.47524882  0.35222154    -0.10000
N951        N  0.50509234  0.34117646  0.28360862     0.00900
C952        C  0.52889833  0.35084793  0.27536385    -0.09900
C953        C  0.52561916  0.36662296  0.25254964    -0.05500
C954        C  0.49827995  0.36693873  0.24694669    -0.06100
C955        C  0.48620286  0.35147212  0.26656643    -0.10000
O956        O  0.27808691  0.27033969  0.35249104    -0.78400
O957        O  0.36537667  0.33734008  0.31300621    -0.63100
O958        O  0.29544342  0.30924773  0.32250167    -1.09700
C959        C  0.33598208  0.22910417  0.28812710     1.08500
O960        O  0.36285233  0.31934867  0.27224148    -0.76300
O961        O  0.33238160  0.28010154  0.25105119    -0.63900
Ni962      Ni  0.27803718  0.30884565  0.35551074     1.34900
C963        C  0.31006314  0.29294879  0.25255054     0.87200
O964        O  0.31736804  0.35859269  0.33236533    -0.76900
O965        O  0.28001003  0.34767003  0.35678697    -0.87100
C966        C  0.37524282  0.33392167  0.28953558     0.86800
O967        O  0.30731206  0.30449971  0.37942314    -0.65300
O968        O  0.35740291  0.24255512  0.28344890    -0.84600
C969        C  0.33246266  0.30587153  0.37657203     0.87600
C970        C  0.29579392  0.36473556  0.34558872     1.09200
H971        H  0.34865844  0.27781382  0.32319665     0.41000
O972        O  0.33936761  0.28713892  0.30852014    -1.07300
O973        O  0.29533774  0.29099661  0.27325075    -0.63900
Ni974      Ni  0.30352061  0.27438132  0.30759168     1.26300
O975        O  0.34365236  0.31416705  0.35528477    -0.64200
O976        O  0.31283919  0.24001885  0.29223253    -0.76500
C977        C  0.26051153  0.26304482  0.33544061     0.87000
O978        O  0.26691077  0.26284835  0.31065605    -0.63600
Ni979      Ni  0.36048833  0.28096817  0.27774941     1.27400
Ni980      Ni  0.33010838  0.32361729  0.31978097     1.26100
H981        H  0.28354928  0.31930067  0.31030625     0.41500
O982        O  0.68481175  0.25516651  0.29106797    -0.78400
O983        O  0.73214865  0.35740231  0.34526436    -0.63100
O984        O  0.70950848  0.28730880  0.32963808    -1.09700
C985        C  0.62556058  0.33278564  0.33529540     1.08500
O986        O  0.70597478  0.35700614  0.38126917    -0.76300
O987        O  0.65900064  0.32882387  0.38795959    -0.63900
Ni988      Ni  0.72079699  0.26813993  0.29838789     1.34900
C989        C  0.66378372  0.30339335  0.38958785     0.87200
O990        O  0.75779938  0.31072540  0.33775122    -0.76900
O991        O  0.75790702  0.27808012  0.30531848    -0.87100
C992        C  0.72653795  0.36561671  0.36889358     0.86800
O993        O  0.71544320  0.29709702  0.27279896    -0.65300
O994        O  0.63741073  0.35393280  0.34465281    -0.84600
C995        C  0.72135285  0.32221455  0.27483622     0.87600
C996        C  0.76899521  0.29130341  0.32485818     1.09200
H997        H  0.68102506  0.34208001  0.31740558     0.41000
O998        O  0.68515107  0.33314774  0.33442849    -1.07300
O999        O  0.67534400  0.29032436  0.37073906    -0.63900
Ni1000     Ni  0.67272892  0.29750862  0.33255212     1.26300
O1001       O  0.72608411  0.33341973  0.29785066    -0.64200
O1002       O  0.63584318  0.30874940  0.33539469    -0.76500
C1003       C  0.66778123  0.24788234  0.30871307     0.87000
O1004       O  0.66221286  0.26171482  0.32944777    -0.63600
Ni1005     Ni  0.67150810  0.35539718  0.36283175     1.27400
Ni1006     Ni  0.72181269  0.32269478  0.33560177     1.26100
H1007       H  0.71493778  0.27630066  0.34501908     0.41500
O1008       O  0.32683542  0.63200712  0.27783600    -0.78400
O1009       O  0.37890397  0.64742077  0.39649549    -0.63100
O1010       O  0.33187412  0.63484240  0.33467924    -1.09700
C1011       C  0.33734456  0.73111929  0.33319271     1.08500
O1012       O  0.34398693  0.67231306  0.40720564    -0.76300
O1013       O  0.30723583  0.70387682  0.38082723    -0.63900
Ni1014     Ni  0.34594720  0.61298890  0.30591138     1.34900
C1015       C  0.28990012  0.69221357  0.36601342     0.87200
O1016       O  0.35841290  0.60220847  0.37409267    -0.76900
O1017       O  0.36543469  0.59184583  0.33212497    -0.87100
C1018       C  0.36755049  0.66371740  0.41290818     0.86800
O1019       O  0.37444851  0.63811240  0.30258244    -0.65300
O1020       O  0.34639122  0.73016207  0.35754585    -0.84600
C1021       C  0.39386837  0.63756579  0.31945820     0.87600
C1022       C  0.35408163  0.58654715  0.35420219     1.09200
H1023       H  0.37079909  0.68267579  0.34761372     0.41000
O1024       O  0.35390225  0.67695590  0.35517044    -1.07300
O1025       O  0.29651672  0.67508840  0.34783455    -0.63900
Ni1026     Ni  0.32873270  0.67273995  0.32665813     1.26300
O1027       O  0.38998273  0.63614256  0.34490334    -0.64200
O1028       O  0.32682161  0.71104804  0.32036653    -0.76500
C1029       C  0.30970398  0.65157052  0.27688509     0.87000
O1030       O  0.30490745  0.66740328  0.29668658    -0.63600
Ni1031     Ni  0.34531724  0.70170212  0.38291054     1.27400
Ni1032     Ni  0.35677696  0.63981105  0.36534071     1.26100
H1033       H  0.31477412  0.62776856  0.34063091     0.41500
O1034       O  0.40065534  0.36425761  0.67342829    -0.78400
O1035       O  0.28795665  0.30562468  0.66371870    -0.63100
O1036       O  0.34538761  0.35293305  0.68139399    -1.09700
C1037       C  0.37776357  0.27802908  0.73335228     1.08500
O1038       O  0.28449609  0.29088833  0.70619524    -0.76300
O1039       O  0.31850509  0.30386182  0.74708781    -0.63900
Ni1040     Ni  0.36709683  0.36646118  0.65285700     1.34900
C1041       C  0.32674546  0.32791976  0.75162644     0.87200
O1042       O  0.29898212  0.35846263  0.65255394    -0.76900
O1043       O  0.33550774  0.37007583  0.62983013    -0.87100
C1044       C  0.27427996  0.29626761  0.68302597     0.86800
O1045       O  0.37506111  0.33128977  0.63793171    -0.65300
O1046       O  0.35529457  0.26621006  0.72880479    -0.84600
C1047       C  0.35734722  0.31574554  0.62760662     0.87600
C1048       C  0.31123914  0.37480842  0.63706651     1.09200
H1049       H  0.34705355  0.29047002  0.67871180     0.41000
O1050       O  0.33765869  0.30248117  0.69115192    -1.07300
O1051       O  0.34181557  0.34050187  0.73523240    -0.63900
Ni1052     Ni  0.36311052  0.32812148  0.70462302     1.26300
O1053       O  0.33324686  0.31546115  0.63696697    -0.64200
O1054       O  0.38243880  0.30259841  0.72708517    -0.76500
C1055       C  0.40507324  0.36202190  0.69874914     0.87000
O1056       O  0.38718626  0.35515339  0.71516111    -0.63600
Ni1057     Ni  0.32053992  0.27954445  0.71660952     1.27400
Ni1058     Ni  0.31730234  0.32915489  0.67094845     1.26100
H1059       H  0.33799960  0.36814042  0.69158818     0.41500
N1060       N  0.51266355  0.61265042  0.27475669     0.00900
C1061       C  0.48913769  0.60011924  0.26795372    -0.09900
C1062       C  0.49328781  0.57607906  0.25248015    -0.05500
C1063       C  0.52210897  0.57475783  0.25063004    -0.06100
C1064       C  0.53281723  0.59747975  0.26431575    -0.10000
N1065       N  0.65028300  0.70216993  0.50044831     0.00900
C1066       C  0.63871399  0.71490107  0.52185028    -0.09900
C1067       C  0.61607226  0.73069711  0.51303650    -0.05500
C1068       C  0.61363090  0.72699987  0.48457848    -0.06100
C1069       C  0.63477695  0.70886986  0.47860399    -0.10000
N1070       N  0.74910379  0.48679045  0.34789936     0.00900
C1071       C  0.76099366  0.51024739  0.35495102    -0.09900
C1072       C  0.78440246  0.50492835  0.37013833    -0.05500
C1073       C  0.78672016  0.47700950  0.37322808    -0.06100
C1074       C  0.76481529  0.46683705  0.35879123    -0.10000
O1075       O  0.69284560  0.68839171  0.36997263    -0.78400
O1076       O  0.71723993  0.69863702  0.25674796    -0.63100
O1077       O  0.67721008  0.69648475  0.32052701    -1.09700
C1078       C  0.70402140  0.60334450  0.31300532     1.08500
O1079       O  0.68730800  0.66850321  0.24249250    -0.76300
O1080       O  0.65949368  0.63020402  0.26865481    -0.63900
Ni1081     Ni  0.68598638  0.72028973  0.34943838     1.34900
C1082       C  0.64203841  0.63625212  0.28629710     0.87200
O1083       O  0.69331708  0.73753918  0.28606557    -0.76900
O1084       O  0.68043007  0.75231956  0.32739322    -0.87100
C1085       C  0.70459512  0.68676508  0.23767025     0.86800
O1086       O  0.72403583  0.72355338  0.34731173    -0.65300
O1087       O  0.70673491  0.60778348  0.28761051    -0.84600
C1088       C  0.74126882  0.71441529  0.33083634     0.87600
C1089       C  0.68510969  0.75625426  0.30224734     1.09200
H1090       H  0.72219016  0.65724141  0.30000509     0.41000
O1091       O  0.70355957  0.66081643  0.29468458    -1.07300
O1092       O  0.64817658  0.64902888  0.30817015    -0.63900
Ni1093     Ni  0.68274842  0.65760204  0.32594817     1.26300
O1094       O  0.73405514  0.70393693  0.30812931    -0.64200
O1095       O  0.69145995  0.61941332  0.32941369    -0.76500
C1096       C  0.67233865  0.67497363  0.37619172     0.87000
O1097       O  0.66343140  0.65751818  0.35939589    -0.63600
Ni1098     Ni  0.69690606  0.63798958  0.26495507     1.27400
Ni1099     Ni  0.69888918  0.69898783  0.28979574     1.26100
H1100       H  0.65853023  0.69998011  0.31519938     0.41500
N1101       N  0.64563688  0.27802077  0.51127319     0.00900
C1102       C  0.62882493  0.27780236  0.53302482    -0.09900
C1103       C  0.61079449  0.25524823  0.53089614    -0.05500
C1104       C  0.61354594  0.24709266  0.50344893    -0.06100
C1105       C  0.63519950  0.26089986  0.49259733    -0.10000
N1106       N  0.74546494  0.48898736  0.62082420     0.00900
C1107       C  0.75494905  0.50938814  0.60482409    -0.09900
C1108       C  0.76979419  0.49998723  0.58217112    -0.05500
C1109       C  0.76897279  0.47040532  0.58502636    -0.06100
C1110       C  0.75355078  0.46523558  0.60885107    -0.10000
N1111       N  0.51691714  0.33732684  0.75749251     0.00900
C1112       C  0.49474117  0.34996272  0.76761753    -0.09900
C1113       C  0.50159559  0.36667448  0.78997647    -0.05500
C1114       C  0.53006136  0.36510764  0.79102503    -0.06100
C1115       C  0.53829198  0.34767672  0.77043273    -0.10000
O1116       O  0.64195882  0.30627497  0.71335743    -0.78400
O1117       O  0.75482188  0.28443236  0.69591582    -0.63100
O1118       O  0.69201962  0.32394318  0.71210108    -1.09700
C1119       C  0.66802537  0.32249910  0.62129155     1.08500
O1120       O  0.75864605  0.29374533  0.65172134    -0.76300
O1121       O  0.73394722  0.34349590  0.65049354    -0.63900
Ni1122     Ni  0.66953436  0.31103931  0.73947100     1.34900
C1123       C  0.71697655  0.36243503  0.65571152     0.87200
O1124       O  0.73641702  0.30831794  0.74086749    -0.76900
O1125       O  0.69798325  0.31571093  0.76456800    -0.87100
C1126       C  0.76776307  0.28436261  0.67410249     0.86800
O1127       O  0.67521193  0.27267173  0.74063265    -0.65300
O1128       O  0.69355513  0.32265728  0.61751716    -0.84600
C1129       C  0.69245861  0.25698118  0.72982743     0.87600
C1130       C  0.72372144  0.31441616  0.76271588     1.09200
H1131       H  0.69899789  0.28094493  0.66653333     0.41000
O1132       O  0.70562280  0.29927661  0.66891376    -1.07300
O1133       O  0.69324206  0.35727879  0.66533244    -0.63900
Ni1134     Ni  0.67545299  0.32281448  0.67760501     1.26300
O1135       O  0.71034061  0.26615020  0.71402104    -0.64200
O1136       O  0.65795015  0.31906097  0.64417227    -0.76500
C1137       C  0.63185388  0.32919686  0.70741948     0.87000
O1138       O  0.64426907  0.34331417  0.69011622    -0.63600
Ni1139     Ni  0.72510173  0.30829213  0.63719268     1.27400
Ni1140     Ni  0.72260452  0.30286317  0.70452992     1.26100
H1141       H  0.69725842  0.34249055  0.71631226     0.41500
N1142       N  0.28932963  0.50720399  0.63731592     0.00900
C1143       C  0.28240148  0.53101469  0.62494315    -0.09900
C1144       C  0.26895104  0.52482759  0.60006110    -0.05500
C1145       C  0.26751461  0.49593127  0.59738852    -0.06100
C1146       C  0.28041141  0.48642008  0.62099861    -0.10000
N1147       N  0.51609205  0.60449095  0.74245619     0.00900
C1148       C  0.49490902  0.59030900  0.75126773    -0.09900
C1149       C  0.50395149  0.56650612  0.76502535    -0.05500
C1150       C  0.53403736  0.56623910  0.76367302    -0.06100
C1151       C  0.53905375  0.59087126  0.74997390    -0.10000
N1152       N  0.38518515  0.71255140  0.52648251     0.00900
C1153       C  0.40362328  0.71636017  0.50718482    -0.09900
C1154       C  0.42408814  0.73337103  0.51611941    -0.05500
C1155       C  0.41866972  0.73937605  0.54306396    -0.06100
C1156       C  0.39462636  0.72603826  0.54835916    -0.10000
O1157       O  0.29092490  0.65425625  0.75006699    -0.78400
O1158       O  0.37257069  0.68010405  0.66557197    -0.63100
O1159       O  0.33693191  0.67615713  0.73226112    -1.09700
C1160       C  0.27477630  0.73747030  0.68570058     1.08500
O1161       O  0.36953305  0.72376390  0.67454432    -0.76300
O1162       O  0.33589526  0.75854636  0.70115338    -0.63900
Ni1163     Ni  0.32782161  0.64167589  0.74698958     1.34900
C1164       C  0.33465384  0.75602919  0.72660722     0.87200
O1165       O  0.38380967  0.65149282  0.71069604    -0.76900
O1166       O  0.36533772  0.62845221  0.74507734    -0.87100
C1167       C  0.37672043  0.70456963  0.65878771     0.86800
O1168       O  0.31708364  0.62187532  0.71470572    -0.65300
O1169       O  0.29401340  0.74184305  0.66911394    -0.84600
C1170       C  0.32133402  0.62489146  0.68955530     0.87600
C1171       C  0.38549278  0.63420260  0.73003328     1.09200
H1172       H  0.31306377  0.69003879  0.67591805     0.41000
O1173       O  0.32485967  0.69983217  0.68823851    -1.07300
O1174       O  0.32735761  0.73342467  0.73727631    -0.63900
Ni1175     Ni  0.30783258  0.70137307  0.72173097     1.26300
O1176       O  0.33558251  0.64470509  0.68106423    -0.64200
O1177       O  0.27837730  0.72476069  0.70828237    -0.76500
C1178       C  0.28563441  0.67536786  0.76423356     0.87000
O1179       O  0.29111244  0.69892775  0.75567629    -0.63600
Ni1180     Ni  0.33218492  0.73335101  0.67150438     1.27400
Ni1181     Ni  0.35464524  0.67558269  0.69863520     1.26100
H1182       H  0.34858315  0.68520957  0.74535180     0.41500
O1183       O  0.63555145  0.64353075  0.68420489    -0.78400
O1184       O  0.74645559  0.68601006  0.65044354    -0.63100
O1185       O  0.69164051  0.64490448  0.68485554    -1.09700
C1186       C  0.67915135  0.72853742  0.73208239     1.08500
O1187       O  0.76172876  0.69651876  0.69096131    -0.76300
O1188       O  0.73733624  0.69195860  0.73860012    -0.63900
Ni1189     Ni  0.66430411  0.62750090  0.66362624     1.34900
C1190       C  0.72479575  0.67173705  0.74779376     0.87200
O1191       O  0.73016501  0.63358243  0.64558001    -0.76900
O1192       O  0.69130695  0.61001711  0.64187233    -0.87100
C1193       C  0.76374068  0.69786724  0.66549338     0.86800
O1194       O  0.65795311  0.65479727  0.63691772    -0.65300
O1195       O  0.70330250  0.73424968  0.72536325    -0.84600
C1196       C  0.67296264  0.67262391  0.62667431     0.87600
C1197       C  0.71639792  0.61328935  0.63707336     1.09200
H1198       H  0.69623830  0.70719948  0.67673126     0.41000
O1199       O  0.70594934  0.69434780  0.68821787    -1.07300
O1200       O  0.70337994  0.66233598  0.73674772    -0.63900
Ni1201     Ni  0.67963913  0.67439417  0.70744997     1.26300
O1202       O  0.69648856  0.67751680  0.63620821    -0.64200
O1203       O  0.66817261  0.70533782  0.72839717    -0.76500
C1204       C  0.63440630  0.64174603  0.70974859     0.87000
O1205       O  0.65261511  0.65277646  0.72433279    -0.63600
Ni1206     Ni  0.73203032  0.71486405  0.70798426     1.27400
Ni1207     Ni  0.71872660  0.66466502  0.66636402     1.26100
H1208       H  0.70050614  0.63111850  0.69586544     0.41500
O1209       O  0.03389928  0.28099995  0.54732377    -0.72000
O1210       O  0.97789030  0.26733248  0.49645815    -0.72000
O1211       O  0.98229913  0.26687486  0.55116509    -0.72100
O1212       O  0.03020440  0.28072742  0.49320756    -0.72100
O1213       O  0.04198847  0.23648751  0.49265244    -0.72000
O1214       O  0.99407257  0.22264171  0.54969008    -0.72000
O1215       O  0.98965508  0.22302009  0.49510844    -0.72000
O1216       O  0.04612073  0.23679832  0.54652901    -0.72100
Ni1217     Ni  0.00550699  0.27557004  0.52201575     1.25400
Ni1218     Ni  0.01828104  0.22809532  0.52092174     1.25400
C1219       C  0.04898876  0.26122682  0.55536579     0.90200
C1220       C  0.97510016  0.24324917  0.48694007     0.90100
C1221       C  0.98112852  0.24256653  0.56048286     0.90200
C1222       C  0.04460324  0.26082829  0.48409588     0.90300
O1223       O  0.98442219  0.76627123  0.52318317    -0.72000
O1224       O  0.04201843  0.75795356  0.47521683    -0.72000
O1225       O  0.98816969  0.75787781  0.47038601    -0.72100
O1226       O  0.03847203  0.76618678  0.52854148    -0.72100
O1227       O  0.03862032  0.72131131  0.53572194    -0.72000
O1228       O  0.98796671  0.71281979  0.47648199    -0.72000
O1229       O  0.04260558  0.71286928  0.48164109    -0.72000
O1230       O  0.98352963  0.72126634  0.52972751    -0.72100
Ni1231     Ni  0.01335751  0.76358904  0.49917426     1.25400
Ni1232     Ni  0.01330682  0.71532734  0.50623496     1.25400
C1233       C  0.97334727  0.74523975  0.53292067     0.90200
C1234       C  0.05177173  0.73422440  0.47036001     0.90100
C1235       C  0.97905983  0.73427227  0.46431793     0.90200
C1236       C  0.04722094  0.74528978  0.54157331     0.90300
O1237       O  0.78343590  0.53188960  0.03691156    -0.72000
O1238       O  0.79670116  0.47495593  0.98615328    -0.72000
O1239       O  0.79615204  0.52995864  0.98393613    -0.72100
O1240       O  0.78486297  0.47767492  0.03916597    -0.72100
O1241       O  0.74071328  0.47659524  0.02897866    -0.72000
O1242       O  0.75186600  0.53001434  0.97383159    -0.72000
O1243       O  0.75228186  0.47492387  0.97617107    -0.72000
O1244       O  0.73925912  0.53060711  0.02616309    -0.72100
Ni1245     Ni  0.79196523  0.50360657  0.01183671     1.25400
Ni1246     Ni  0.74448592  0.50294517  0.00074287     1.25400
C1247       C  0.75893021  0.54006324  0.03996732     0.90200
C1248       C  0.77621884  0.46556090  0.97326118     0.90100
C1249       C  0.77580217  0.53914267  0.97034271     0.90200
C1250       C  0.76098277  0.46934771  0.04394680     0.90300
O1251       O  0.49223054  0.98322288  0.78071815    -0.72000
O1252       O  0.55773713  0.02205774  0.77626848    -0.72000
O1253       O  0.50542947  0.03567565  0.77913280    -0.72100
O1254       O  0.54379041  0.96910861  0.77711422    -0.72100
O1255       O  0.54042291  0.96843408  0.73188599    -0.72000
O1256       O  0.50182081  0.03517354  0.73401377    -0.72000
O1257       O  0.55493302  0.02199710  0.73112363    -0.72000
O1258       O  0.48814802  0.98191814  0.73574204    -0.72100
Ni1259     Ni  0.52508996  0.00262212  0.77983797     1.25400
Ni1260     Ni  0.52135023  0.00196539  0.73144282     1.25400
C1261       C  0.47973856  0.97526455  0.75932344     0.90200
C1262       C  0.56678416  0.02929193  0.75333301     0.90100
C1263       C  0.49678624  0.04606166  0.75695788     0.90200
C1264       C  0.54614024  0.95689092  0.75434477     0.90300
O1265       O  0.27665163  0.53952803  0.99415907    -0.72000
O1266       O  0.28237612  0.47964660  0.04256062    -0.72000
O1267       O  0.28536419  0.48544927  0.98871240    -0.72100
O1268       O  0.27340865  0.53429562  0.04787532    -0.72100
O1269       O  0.22878906  0.52778842  0.04429899    -0.72000
O1270       O  0.24069664  0.47959429  0.98420071    -0.72000
O1271       O  0.23772884  0.47343975  0.03860210    -0.72000
O1272       O  0.23198746  0.53347038  0.98998377    -0.72100
Ni1273     Ni  0.28103059  0.50991556  0.01852663     1.25400
Ni1274     Ni  0.23315788  0.50328011  0.01418609     1.25400
C1275       C  0.25351216  0.54628884  0.98415686     0.90200
C1276       C  0.26100161  0.46664589  0.04840836     0.90100
C1277       C  0.26499390  0.47482929  0.97657674     0.90200
C1278       C  0.24915745  0.53957834  0.05535744     0.90300
O1279       O  0.51193477  0.02317928  0.28606012    -0.72000
O1280       O  0.48353898  0.95280053  0.28510083    -0.72000
O1281       O  0.53340188  0.97264088  0.28216528    -0.72100
O1282       O  0.46176593  0.00316922  0.28845893    -0.72100
O1283       O  0.45848348  0.00510327  0.24341671    -0.72000
O1284       O  0.52920697  0.97394684  0.23718575    -0.72000
O1285       O  0.47914788  0.95401812  0.23991850    -0.72000
O1286       O  0.50894230  0.02493605  0.24089371    -0.72100
Ni1287     Ni  0.49779027  0.98792304  0.28706608     1.25400
Ni1288     Ni  0.49377735  0.98960564  0.23870010     1.25400
C1289       C  0.51610484  0.03518649  0.26372172     0.90200
C1290       C  0.47620728  0.94215297  0.26262053     0.90100
C1291       C  0.54283919  0.96766274  0.25853019     0.90200
C1292       C  0.44840365  0.00941098  0.26684498     0.90300
C1293       C  0.39378547  0.69005688  0.61405740     0.26100
C1294       C  0.38279721  0.71059485  0.63076942    -0.22100
C1295       C  0.37430312  0.73579933  0.61958389     0.21000
C1296       C  0.37610994  0.73998405  0.59197723     0.26000
C1297       C  0.38688767  0.71943682  0.57556141    -0.22000
C1298       C  0.39587056  0.69453977  0.58650687     0.20900
F1299       F  0.40815444  0.67531617  0.57075814    -0.12000
F1300       F  0.40284572  0.66588691  0.62440438    -0.14300
F1301       F  0.36805047  0.76431524  0.58126778    -0.14300
F1302       F  0.36372182  0.75622218  0.63509890    -0.12000
C1303       C  0.45226804  0.61548503  0.76603388     0.26100
C1304       C  0.46592558  0.59965594  0.74646640    -0.22100
C1305       C  0.45268235  0.59492779  0.72138580     0.21000
C1306       C  0.42648612  0.60578403  0.71605831     0.26000
C1307       C  0.41258477  0.62106888  0.73593616    -0.22000
C1308       C  0.42578481  0.62563261  0.76103190     0.20900
F1309       F  0.41356918  0.64131750  0.78021860    -0.12000
F1310       F  0.46504200  0.62208827  0.78965335    -0.14300
F1311       F  0.41472048  0.60144693  0.69139600    -0.14300
F1312       F  0.46534205  0.58018631  0.70178858    -0.12000
C1313       C  0.60267780  0.63268970  0.74821952     0.26100
C1314       C  0.61152580  0.62703389  0.72173435    -0.22100
C1315       C  0.59786559  0.60714219  0.70609751     0.21000
C1316       C  0.57529001  0.59411441  0.71623345     0.26000
C1317       C  0.56587314  0.60061045  0.74208146    -0.22000
C1318       C  0.57972789  0.61976910  0.75817948     0.20900
F1319       F  0.57030077  0.62682730  0.78300498    -0.12000
F1320       F  0.61537052  0.65158650  0.76393368    -0.14300
F1321       F  0.56179320  0.57598508  0.70028732    -0.14300
F1322       F  0.60615383  0.60039602  0.68076250    -0.12000
C1323       C  0.27508271  0.56842329  0.66033960     0.26100
C1324       C  0.28908777  0.55880245  0.63737870    -0.22100
C1325       C  0.31246313  0.57317062  0.63000558     0.21000
C1326       C  0.32221643  0.59547538  0.64584832     0.26000
C1327       C  0.30917954  0.60387818  0.66995454    -0.22000
C1328       C  0.28492098  0.59035345  0.67633917     0.20900
F1329       F  0.27065076  0.59816533  0.69847338    -0.12000
F1330       F  0.25204679  0.55595132  0.66789723    -0.14300
F1331       F  0.34540740  0.60774234  0.63841216    -0.14300
F1332       F  0.32676298  0.56468976  0.60815230    -0.12000
C1333       C  0.60963175  0.33055244  0.75220500     0.26100
C1334       C  0.61042902  0.33987436  0.72509317    -0.22100
C1335       C  0.58911399  0.35609921  0.71496773     0.21000
C1336       C  0.56637824  0.36090848  0.73094920     0.26000
C1337       C  0.56462035  0.34890774  0.75679220    -0.22000
C1338       C  0.58679371  0.33493088  0.76778029     0.20900
F1339       F  0.58555595  0.32373554  0.79281945    -0.12000
F1340       F  0.63032030  0.31571665  0.76333994    -0.14300
F1341       F  0.54543642  0.37597473  0.72064422    -0.14300
F1342       F  0.58929321  0.36528054  0.68906965    -0.12000
C1343       C  0.70775706  0.40711914  0.63116456     0.26100
C1344       C  0.72529680  0.39064814  0.64711360    -0.22100
C1345       C  0.75278709  0.39855635  0.64926751     0.21000
C1346       C  0.76221120  0.42213363  0.63620375     0.26000
C1347       C  0.74479364  0.43804661  0.61972779    -0.22000
C1348       C  0.71740510  0.43030843  0.61756987     0.20900
F1349       F  0.69991593  0.44516319  0.60190267    -0.12000
F1350       F  0.68152596  0.39989309  0.62741494    -0.14300
F1351       F  0.78834417  0.42967767  0.64004864    -0.14300
F1352       F  0.77075684  0.38320632  0.66392914    -0.12000
C1353       C  0.76403900  0.55461585  0.62567124     0.26100
C1354       C  0.74779735  0.53812476  0.60908541    -0.22100
C1355       C  0.72411069  0.54882852  0.59706957     0.21000
C1356       C  0.71526703  0.57511390  0.60379903     0.26000
C1357       C  0.73006422  0.59078713  0.62272386    -0.22000
C1358       C  0.75536293  0.58104821  0.63228973     0.20900
F1359       F  0.77034338  0.59595063  0.65012658    -0.12000
F1360       F  0.78743563  0.54452965  0.63668754    -0.14300
F1361       F  0.69138978  0.58461526  0.59323242    -0.14300
F1362       F  0.70881835  0.53325412  0.58006910    -0.12000
C1363       C  0.65843028  0.33334048  0.57295097     0.26100
C1364       C  0.64933481  0.32432498  0.59800897    -0.22100
C1365       C  0.62312599  0.31306509  0.59904480     0.21000
C1366       C  0.61119841  0.30329435  0.57504003     0.26000
C1367       C  0.62707563  0.30228397  0.55177340    -0.22000
C1368       C  0.64555985  0.32379888  0.54960691     0.20900
F1369       F  0.65053927  0.33576891  0.52558321    -0.12000
F1370       F  0.68012524  0.34992716  0.57109041    -0.14300
F1371       F  0.58546337  0.29398760  0.57489607    -0.14300
F1372       F  0.61056299  0.30890726  0.62293024    -0.12000
C1373       C  0.70896370  0.56635141  0.34743798     0.26100
C1374       C  0.71845119  0.57949484  0.32432587    -0.22100
C1375       C  0.74363663  0.57142677  0.31343961     0.21000
C1376       C  0.75878634  0.55032545  0.32521345     0.26000
C1377       C  0.74899220  0.53683957  0.34779702    -0.22000
C1378       C  0.72404449  0.54499314  0.35895379     0.20900
F1379       F  0.71367923  0.53152089  0.38029904    -0.12000
F1380       F  0.68469316  0.57348281  0.35825880    -0.14300
F1381       F  0.78228758  0.54193626  0.31360833    -0.14300
F1382       F  0.75383251  0.58414051  0.29152249    -0.12000
C1383       C  0.63771655  0.67269512  0.44327953     0.26100
C1384       C  0.64114652  0.69996300  0.45141755    -0.22100
C1385       C  0.65170371  0.71904168  0.43390698     0.21000
C1386       C  0.65950661  0.71098990  0.40840221     0.26000
C1387       C  0.65806007  0.68330913  0.40051455    -0.22000
C1388       C  0.64629999  0.66425745  0.41768425     0.20900
F1389       F  0.64469862  0.63752725  0.41042253    -0.12000
F1390       F  0.62686065  0.65432797  0.46035171    -0.14300
F1391       F  0.66961361  0.73026978  0.39187645    -0.14300
F1392       F  0.65586297  0.74521602  0.44208721    -0.12000
C1393       C  0.67161491  0.71440755  0.56141082     0.26100
C1394       C  0.64603842  0.70802929  0.55044994    -0.22100
C1395       C  0.62845868  0.69231386  0.56586774     0.21000
C1396       C  0.63661245  0.68218569  0.59121081     0.26000
C1397       C  0.66288395  0.68718080  0.60176267    -0.22000
C1398       C  0.67995422  0.70422974  0.58680450     0.20900
F1399       F  0.70516514  0.71028285  0.59613397    -0.12000
F1400       F  0.68883861  0.73002246  0.54722242    -0.14300
F1401       F  0.61895156  0.66648197  0.60480434    -0.14300
F1402       F  0.60387770  0.68518525  0.55565395    -0.12000
C1403       C  0.59854939  0.61475854  0.30135023     0.26100
C1404       C  0.61373047  0.62690005  0.28084397    -0.22100
C1405       C  0.60282558  0.62710124  0.25419077     0.21000
C1406       C  0.57714314  0.61621962  0.24843751     0.26000
C1407       C  0.56200234  0.60429949  0.26900557    -0.22000
C1408       C  0.57321226  0.60320140  0.29537528     0.20900
F1409       F  0.55945004  0.59094176  0.31544620    -0.12000
F1410       F  0.60858129  0.61334488  0.32706200    -0.14300
F1411       F  0.56661861  0.61828371  0.22295668    -0.14300
F1412       F  0.61676475  0.63856385  0.23375367    -0.12000
C1413       C  0.27832652  0.41337826  0.64507072     0.26100
C1414       C  0.29878922  0.40121668  0.62915199    -0.22100
C1415       C  0.31167307  0.41716648  0.60960510     0.21000
C1416       C  0.30612767  0.44499970  0.60785270     0.26000
C1417       C  0.28707956  0.45738776  0.62490379    -0.22000
C1418       C  0.27255339  0.44138254  0.64292797     0.20900
F1419       F  0.25301778  0.45288713  0.65855986    -0.12000
F1420       F  0.26497410  0.39861504  0.66371240    -0.14300
F1421       F  0.31997117  0.46010227  0.58987593    -0.14300
F1422       F  0.33073747  0.40616793  0.59301572    -0.12000
C1423       C  0.44400594  0.38384205  0.72085118     0.26100
C1424       C  0.43217144  0.36074335  0.70942247    -0.22100
C1425       C  0.44099848  0.33460127  0.71689700     0.21000
C1426       C  0.45863725  0.33125704  0.73860002     0.26000
C1427       C  0.47104670  0.35416185  0.75004897    -0.22000
C1428       C  0.46441851  0.38054827  0.74031509     0.20900
F1429       F  0.47763588  0.40297220  0.74943689    -0.12000
F1430       F  0.43526992  0.40926760  0.71376068    -0.14300
F1431       F  0.46437915  0.30567780  0.74777189    -0.14300
F1432       F  0.43061591  0.31237118  0.70431669    -0.12000
C1433       C  0.39948113  0.66376734  0.45238296     0.26100
C1434       C  0.38268734  0.67797465  0.43403706    -0.22100
C1435       C  0.37794487  0.70626569  0.43755414     0.21000
C1436       C  0.38720978  0.71942559  0.46060414     0.26000
C1437       C  0.40119830  0.70455531  0.48028556    -0.22000
C1438       C  0.40873240  0.67715290  0.47568941     0.20900
F1439       F  0.42349098  0.66307687  0.49452060    -0.12000
F1440       F  0.40488445  0.63669466  0.44895100    -0.14300
F1441       F  0.38061410  0.74615340  0.46476433    -0.14300
F1442       F  0.36300119  0.72107058  0.41952739    -0.12000
C1443       C  0.45076514  0.63298375  0.27047340     0.26100
C1444       C  0.46369443  0.60907686  0.27974462    -0.22100
C1445       C  0.45577858  0.59706835  0.30394416     0.21000
C1446       C  0.43441667  0.60826288  0.31842698     0.26000
C1447       C  0.42059257  0.63156828  0.30871456    -0.22000
C1448       C  0.42901387  0.64408062  0.28477921     0.20900
F1449       F  0.41585174  0.66663697  0.27513309    -0.12000
F1450       F  0.45931283  0.64548671  0.24771612    -0.14300
F1451       F  0.42614302  0.59523965  0.34100827    -0.14300
F1452       F  0.46943716  0.57504829  0.31407973    -0.12000
C1453       C  0.67057413  0.26773879  0.42578381     0.26100
C1454       C  0.65467246  0.28865019  0.41380338    -0.22100
C1455       C  0.62979048  0.29602845  0.42553121     0.21000
C1456       C  0.62210436  0.28455686  0.45000237     0.26000
C1457       C  0.63917524  0.26552735  0.46328060    -0.22000
C1458       C  0.66288881  0.25632131  0.45050076     0.20900
F1459       F  0.67955699  0.23787850  0.46297910    -0.12000
F1460       F  0.69447941  0.25987441  0.41468752    -0.14300
F1461       F  0.59953261  0.29446806  0.46225311    -0.14300
F1462       F  0.61342011  0.31534061  0.41392513    -0.12000
C1463       C  0.77273643  0.41793293  0.35771201     0.26100
C1464       C  0.75552243  0.43983615  0.36404443    -0.22100
C1465       C  0.73392797  0.43647420  0.38181748     0.21000
C1466       C  0.72697129  0.41043591  0.38956221     0.26000
C1467       C  0.74184402  0.38817313  0.37941265    -0.22000
C1468       C  0.76689733  0.39228579  0.36712557     0.20900
F1469       F  0.78283488  0.37076598  0.35965846    -0.12000
F1470       F  0.79496120  0.42150257  0.34227696    -0.14300
F1471       F  0.70393607  0.40686039  0.40375918    -0.14300
F1472       F  0.72004820  0.45826509  0.39197161    -0.12000
C1473       C  0.57232567  0.32712526  0.28161226     0.26100
C1474       C  0.55384875  0.34690182  0.29036059    -0.22100
C1475       C  0.55818950  0.36157288  0.31446374     0.21000
C1476       C  0.58115769  0.35622246  0.33010261     0.26000
C1477       C  0.59981808  0.33633846  0.32141309    -0.22000
C1478       C  0.59535550  0.32183802  0.29706488     0.20900
F1479       F  0.61400285  0.30369465  0.28746914    -0.12000
F1480       F  0.56805781  0.31312463  0.25811684    -0.14300
F1481       F  0.58520551  0.37037826  0.35354073    -0.14300
F1482       F  0.54030403  0.38117620  0.32266653    -0.12000
C1483       C  0.43918134  0.34305471  0.25073373     0.26100
C1484       C  0.45706458  0.35057843  0.27156015    -0.22100
C1485       C  0.44708907  0.35740935  0.29725172     0.21000
C1486       C  0.41985896  0.35373770  0.30296918     0.26000
C1487       C  0.40215694  0.34403991  0.28264719    -0.22000
C1488       C  0.41181296  0.34031108  0.25605029     0.20900
F1489       F  0.39509156  0.33270149  0.23534258    -0.12000
F1490       F  0.44838720  0.33699621  0.22557823    -0.14300
F1491       F  0.41124475  0.35848825  0.32860639    -0.14300
F1492       F  0.46372541  0.36761375  0.31681480    -0.12000
C1493       C  0.28770761  0.55527507  0.33299188     0.26100
C1494       C  0.28014763  0.54347756  0.35747481    -0.22100
C1495       C  0.29582159  0.54814073  0.38098811     0.21000
C1496       C  0.31968481  0.56233576  0.37964002     0.26000
C1497       C  0.32897756  0.57126544  0.35461778    -0.22000
C1498       C  0.31255783  0.56808009  0.33123514     0.20900
F1499       F  0.32071365  0.57615449  0.30649716    -0.12000
F1500       F  0.27286467  0.55097142  0.30999702    -0.14300
F1501       F  0.33485750  0.56533819  0.40264619    -0.14300
F1502       F  0.29069363  0.53572324  0.40459347    -0.12000
C1503       C  0.29526953  0.44013942  0.35757844     0.26100
C1504       C  0.26863503  0.44705314  0.34927518    -0.22100
C1505       C  0.25115616  0.42682248  0.33987989     0.21000
C1506       C  0.26030269  0.39986388  0.33854169     0.26000
C1507       C  0.28703981  0.39309717  0.34652106    -0.22000
C1508       C  0.30461677  0.41331598  0.35566284     0.20900
F1509       F  0.33019238  0.40682634  0.36415810    -0.12000
F1510       F  0.31137427  0.45882104  0.36984490    -0.14300
F1511       F  0.24319257  0.38033396  0.32922351    -0.14300
F1512       F  0.22526228  0.43317240  0.33236832    -0.12000
C1513       C  0.35021980  0.27450874  0.56186987     0.26100
C1514       C  0.37580138  0.27766341  0.55020217    -0.22100
C1515       C  0.39632697  0.29010428  0.56567520     0.21000
C1516       C  0.39088147  0.30081703  0.59155700     0.26000
C1517       C  0.36451585  0.29968794  0.60253117    -0.22000
C1518       C  0.34454957  0.28548160  0.58757646     0.20900
F1519       F  0.31913044  0.28295657  0.59728638    -0.12000
F1520       F  0.33053497  0.26082855  0.54823583    -0.14300
F1521       F  0.41134488  0.31322353  0.60532670    -0.14300
F1522       F  0.42139509  0.29310858  0.55519982    -0.12000
C1523       C  0.35719843  0.26042496  0.43193427     0.26100
C1524       C  0.36742341  0.27977237  0.45032039    -0.22100
C1525       C  0.36899589  0.30735700  0.44275053     0.21000
C1526       C  0.35955678  0.31569981  0.41739984     0.26000
C1527       C  0.34867076  0.29654966  0.39943444    -0.22000
C1528       C  0.34785164  0.26881276  0.40651288     0.20900
F1529       F  0.33689766  0.25016566  0.38919142    -0.12000
F1530       F  0.35563787  0.23369833  0.43888752    -0.14300
F1531       F  0.35970226  0.34259879  0.41087592    -0.14300
F1532       F  0.38029866  0.32606528  0.45964734    -0.12000
C1533       C  0.33351250  0.65726852  0.51763621     0.26100
C1534       C  0.30925946  0.67245816  0.51365318    -0.22100
C1535       C  0.31047879  0.70122292  0.51480719     0.21000
C1536       C  0.33530627  0.71427564  0.51984817     0.26000
C1537       C  0.35942233  0.69894991  0.52343296    -0.22000
C1538       C  0.35820714  0.67035861  0.52243511     0.20900
F1539       F  0.38097760  0.65499819  0.52625640    -0.12000
F1540       F  0.33345520  0.62957178  0.51626015    -0.14300
F1541       F  0.33593006  0.74196520  0.52100670    -0.14300
F1542       F  0.28762558  0.71670725  0.51174382    -0.12000
C1543       C  0.22441699  0.58062931  0.56976934     0.26100
C1544       C  0.23920049  0.58827884  0.54674051    -0.22100
C1545       C  0.26222986  0.57209452  0.53996651     0.21000
C1546       C  0.27158088  0.55114260  0.55703927     0.26000
C1547       C  0.25796403  0.54538831  0.58096572    -0.22000
C1548       C  0.23427740  0.56011795  0.58714250     0.20900
F1549       F  0.22037219  0.55424171  0.60986525    -0.12000
F1550       F  0.19973232  0.59184483  0.57494000    -0.14300
F1551       F  0.29428918  0.53677726  0.55039979    -0.14300
F1552       F  0.27547661  0.57599660  0.51641593    -0.12000
C1553       C  0.20200631  0.56231522  0.41626809     0.26100
C1554       C  0.21287167  0.55848404  0.44275056    -0.22100
C1555       C  0.23243657  0.53739036  0.44645792     0.21000
C1556       C  0.24183208  0.52218463  0.42450765     0.26000
C1557       C  0.23313461  0.52813555  0.39792043    -0.22000
C1558       C  0.21259267  0.54781714  0.39406523     0.20900
F1559       F  0.20239915  0.55263406  0.36882654    -0.12000
F1560       F  0.18093717  0.57988664  0.41173391    -0.14300
F1561       F  0.26114306  0.50276472  0.42933029    -0.14300
F1562       F  0.24392965  0.53183741  0.47092051    -0.12000
C1563       C  0.72429178  0.68537850  0.48889426     0.26100
C1564       C  0.72545542  0.65658320  0.49154453    -0.22100
C1565       C  0.70129518  0.64349624  0.49926488     0.21000
C1566       C  0.67706131  0.65855211  0.50364901     0.26000
C1567       C  0.67591316  0.68695502  0.49970837    -0.22000
C1568       C  0.69980437  0.70011285  0.49235155     0.20900
F1569       F  0.69932167  0.72751314  0.48835889    -0.12000
F1570       F  0.74690528  0.69964699  0.48355176    -0.14300
F1571       F  0.65442982  0.64524501  0.51102053    -0.14300
F1572       F  0.70070331  0.61591915  0.50167233    -0.12000
C1573       C  0.79755145  0.55133780  0.42776742     0.26100
C1574       C  0.82599937  0.55090383  0.42878600    -0.22100
C1575       C  0.84082786  0.53819801  0.40823530     0.21000
C1576       C  0.82705957  0.52455932  0.38747053     0.26000
C1577       C  0.79860040  0.52394497  0.38748563    -0.22000
C1578       C  0.78400625  0.53731381  0.40772788     0.20900
F1579       F  0.75683417  0.53472058  0.40969609    -0.12000
F1580       F  0.78284031  0.56490567  0.44672168    -0.14300
F1581       F  0.84128880  0.51101906  0.36809424    -0.14300
F1582       F  0.86830956  0.53854633  0.40877059    -0.12000
C1583       C  0.77524735  0.55164355  0.52108176     0.26100
C1584       C  0.79715479  0.56931425  0.52828773    -0.22100
C1585       C  0.81198899  0.56063298  0.55178180     0.21000
C1586       C  0.80434929  0.53747523  0.56781683     0.26000
C1587       C  0.78190441  0.52054731  0.56110647    -0.22000
C1588       C  0.76767910  0.52849721  0.53713434     0.20900
F1589       F  0.74555929  0.51414176  0.52936306    -0.12000
F1590       F  0.76076916  0.55646519  0.49802059    -0.14300
F1591       F  0.81912134  0.53177818  0.59051870    -0.14300
F1592       F  0.83430236  0.57466367  0.55956601    -0.12000
C1593       C  0.80539667  0.73102228  0.37218381     0.26100
C1594       C  0.82568757  0.71722828  0.35775966    -0.22100
C1595       C  0.81825853  0.70234201  0.33433566     0.21000
C1596       C  0.79108406  0.70138468  0.32541705     0.26000
C1597       C  0.77061184  0.71576680  0.33946810    -0.22000
C1598       C  0.77832216  0.73056196  0.36315041     0.20900
F1599       F  0.75983386  0.74536215  0.37740625    -0.12000
F1600       F  0.81217254  0.74652549  0.39409668    -0.14300
F1601       F  0.78491544  0.68628732  0.30307107    -0.14300
F1602       F  0.83757312  0.68874897  0.32007249    -0.12000
C1603       C  0.86587517  0.69494265  0.43687719     0.26100
C1604       C  0.85804180  0.69428794  0.40891366    -0.22100
C1605       C  0.83974697  0.67262321  0.40256870     0.21000
C1606       C  0.82801850  0.65540886  0.42265664     0.26000
C1607       C  0.83586107  0.65608531  0.45048776    -0.22000
C1608       C  0.85673803  0.67538531  0.45627851     0.20900
F1609       F  0.87022185  0.67457120  0.48037013    -0.12000
F1610       F  0.88255478  0.71463213  0.44628174    -0.14300
F1611       F  0.80950087  0.63686138  0.41422998    -0.14300
F1612       F  0.83426329  0.66625642  0.37637782    -0.12000
C1613       C  0.90977785  0.78831400  0.32935417     0.26100
C1614       C  0.91635069  0.76685691  0.34826751    -0.22100
C1615       C  0.94450466  0.76636297  0.35537130     0.21000
C1616       C  0.96341883  0.78605106  0.34560808     0.26000
C1617       C  0.95740861  0.80452269  0.32377783    -0.22000
C1618       C  0.92961641  0.80456951  0.31608980     0.20900
F1619       F  0.92077805  0.82234849  0.29678980    -0.12000
F1620       F  0.88383725  0.79639542  0.32526217    -0.14300
F1621       F  0.98656302  0.78851756  0.36030853    -0.14300
F1622       F  0.95449433  0.74718672  0.37254275    -0.12000
C1623       C  0.92006204  0.75455646  0.41907911     0.26100
C1624       C  0.91477119  0.73007320  0.40537496    -0.22100
C1625       C  0.93012921  0.70646385  0.41133311     0.21000
C1626       C  0.95125506  0.70758743  0.43048944     0.26000
C1627       C  0.95713164  0.73241395  0.44380498    -0.22000
C1628       C  0.94105822  0.75579910  0.43805890     0.20900
F1629       F  0.94520489  0.77989408  0.45116700    -0.12000
F1630       F  0.90475816  0.77730573  0.41406108    -0.14300
F1631       F  0.96616543  0.68461120  0.43558281    -0.14300
F1632       F  0.92485910  0.68254894  0.39833618    -0.12000
C1633       C  0.79645884  0.75185170  0.62335456     0.26100
C1634       C  0.82264466  0.75241120  0.63468837    -0.22100
C1635       C  0.82946986  0.73489162  0.65619254     0.21000
C1636       C  0.81048830  0.71660659  0.66587730     0.26000
C1637       C  0.78449682  0.71542542  0.65394850    -0.22000
C1638       C  0.77757268  0.73330534  0.63269124     0.20900
F1639       F  0.75239608  0.73314567  0.62127395    -0.12000
F1640       F  0.78967084  0.76862208  0.60247087    -0.14300
F1641       F  0.81786089  0.69919346  0.68606829    -0.14300
F1642       F  0.85514905  0.73414864  0.66637160    -0.12000
C1643       C  0.84951485  0.70310306  0.59695865     0.26100
C1644       C  0.84540297  0.72912811  0.58556142    -0.22100
C1645       C  0.82763763  0.73241167  0.56353738     0.21000
C1646       C  0.81560249  0.70971505  0.55174098     0.26000
C1647       C  0.82286785  0.68324408  0.56052417    -0.22000
C1648       C  0.83876032  0.68013127  0.58410642     0.20900
F1649       F  0.84577246  0.65487403  0.59324602    -0.12000
F1650       F  0.86452391  0.69981088  0.61997895    -0.14300
F1651       F  0.79865170  0.71330721  0.53009872    -0.14300
F1652       F  0.82216555  0.75763323  0.55334702    -0.12000
C1653       C  0.90433858  0.83414390  0.61397615     0.26100
C1654       C  0.90609741  0.80559452  0.61580728    -0.22100
C1655       C  0.93099600  0.79325346  0.62336880     0.21000
C1656       C  0.95305158  0.80920885  0.63116977     0.26000
C1657       C  0.95098240  0.83786999  0.63062481    -0.22000
C1658       C  0.92667825  0.85015002  0.62107372     0.20900
F1659       F  0.92435797  0.87777200  0.61956138    -0.12000
F1660       F  0.88086325  0.84650503  0.60572234    -0.14300
F1661       F  0.97546352  0.79657946  0.64162657    -0.14300
F1662       F  0.93308869  0.76575897  0.62621205    -0.12000
C1663       C  0.93841542  0.72959475  0.56478754     0.26100
C1664       C  0.94768319  0.74912177  0.54660318    -0.22100
C1665       C  0.93196516  0.77281037  0.54119124     0.21000
C1666       C  0.90818134  0.77757833  0.55496888     0.26000
C1667       C  0.89985077  0.75888405  0.57420761    -0.22000
C1668       C  0.91471847  0.73468014  0.57884312     0.20900
F1669       F  0.90819229  0.71760581  0.59912680    -0.12000
F1670       F  0.95310124  0.70657146  0.57034492    -0.14300
F1671       F  0.89407205  0.80125436  0.55075493    -0.14300
F1672       F  0.93975600  0.79171074  0.52294595    -0.12000
C1673       C  0.19769838  0.73939819  0.67702806     0.26100
C1674       C  0.19378653  0.76044121  0.65814452    -0.22100
C1675       C  0.21639753  0.77478084  0.64927373     0.21000
C1676       C  0.24256818  0.76795365  0.65879321     0.26000
C1677       C  0.24672744  0.74661230  0.67760522    -0.22000
C1678       C  0.22382334  0.73252130  0.68669535     0.20900
F1679       F  0.22674969  0.71120929  0.70400826    -0.12000
F1680       F  0.17612020  0.72526032  0.68580632    -0.14300
F1681       F  0.26384870  0.78226128  0.64949950    -0.14300
F1682       F  0.21310598  0.79534140  0.63117090    -0.12000
C1683       C  0.17603954  0.68517287  0.60159337     0.26100
C1684       C  0.19411435  0.69263403  0.58122720    -0.22100
C1685       C  0.20002255  0.72036926  0.57780488     0.21000
C1686       C  0.18590775  0.74045174  0.59227281     0.26000
C1687       C  0.16635275  0.73308982  0.61111516    -0.22000
C1688       C  0.16247616  0.70534235  0.61667712     0.20900
F1689       F  0.14568907  0.69781619  0.63674952    -0.12000
F1690       F  0.17044026  0.65849520  0.60586161    -0.14300
F1691       F  0.19103589  0.76714879  0.58758374    -0.14300
F1692       F  0.21899937  0.72793063  0.55979305    -0.12000
C1693       C  0.05376748  0.81185465  0.66591593     0.26100
C1694       C  0.05788651  0.84041990  0.66938103    -0.22100
C1695       C  0.08258203  0.85045776  0.65944048     0.21000
C1696       C  0.10374352  0.83256662  0.65147141     0.26000
C1697       C  0.10053487  0.80405069  0.65143243    -0.22000
C1698       C  0.07489279  0.79399313  0.65770686     0.20900
F1699       F  0.07043252  0.76670802  0.65679202    -0.12000
F1700       F  0.02912535  0.80090832  0.67023396    -0.14300
F1701       F  0.12732724  0.84325731  0.64289739    -0.14300
F1702       F  0.08573816  0.87748602  0.65509520    -0.12000
C1703       C  0.10286628  0.77795625  0.58351473     0.26100
C1704       C  0.10713058  0.75885873  0.60410709    -0.22100
C1705       C  0.09197037  0.73480405  0.60417962     0.21000
C1706       C  0.07238314  0.73012135  0.58388899     0.26000
C1707       C  0.06795561  0.74941521  0.56315697    -0.22000
C1708       C  0.08362591  0.77330183  0.56316644     0.20900
F1709       F  0.08063657  0.79219428  0.54328102    -0.12000
F1710       F  0.11753076  0.80119808  0.58307339    -0.14300
F1711       F  0.05722436  0.70724660  0.58507404    -0.14300
F1712       F  0.09540831  0.71636567  0.62438395    -0.12000
C1713       C  0.25352491  0.71791569  0.39080362     0.26100
C1714       C  0.26122838  0.70050410  0.36916489    -0.22100
C1715       C  0.24183363  0.69395264  0.34900022     0.21000
C1716       C  0.21521176  0.70349263  0.35114834     0.26000
C1717       C  0.20745495  0.71916849  0.37371046    -0.22000
C1718       C  0.22689106  0.72728189  0.39284289     0.20900
F1719       F  0.21969836  0.74349117  0.41405494    -0.12000
F1720       F  0.27157846  0.72579228  0.41024533    -0.14300
F1721       F  0.19651877  0.69576871  0.33228886    -0.14300
F1722       F  0.24846373  0.67830507  0.32721439    -0.12000
C1723       C  0.16743594  0.70245192  0.45081047     0.26100
C1724       C  0.17621047  0.69911446  0.42385533    -0.22100
C1725       C  0.19650654  0.67878906  0.41961607     0.21000
C1726       C  0.20998724  0.66593856  0.44141041     0.26000
C1727       C  0.19989315  0.66798186  0.46791537    -0.22000
C1728       C  0.17683584  0.68511248  0.47149840     0.20900
F1729       F  0.16153582  0.68400131  0.49400864    -0.12000
F1730       F  0.14985528  0.72245616  0.45801312    -0.14300
F1731       F  0.23161744  0.64939730  0.43602707    -0.14300
F1732       F  0.20249113  0.66970962  0.39442439    -0.12000
C1733       C  0.09542381  0.80517486  0.35230029     0.26100
C1734       C  0.07485460  0.79389667  0.33575515    -0.22100
C1735       C  0.07523642  0.76523225  0.33169475     0.21000
C1736       C  0.09482447  0.74843094  0.34458902     0.26000
C1737       C  0.11498459  0.75971718  0.36141957    -0.22000
C1738       C  0.11542681  0.78833927  0.36461852     0.20900
F1739       F  0.13529044  0.80006847  0.37977633    -0.12000
F1740       F  0.09564444  0.83244118  0.35738530    -0.14300
F1741       F  0.09449303  0.72105023  0.34006673    -0.14300
F1742       F  0.05690327  0.75337814  0.31476475    -0.12000
C1743       C  0.07828589  0.70791129  0.43640908     0.26100
C1744       C  0.07402215  0.73198858  0.45154636    -0.22100
C1745       C  0.09093458  0.75454537  0.44814035     0.21000
C1746       C  0.11209718  0.75282724  0.43021631     0.26000
C1747       C  0.11670296  0.72856012  0.41577860    -0.22000
C1748       C  0.09966488  0.70628381  0.41842426     0.20900
F1749       F  0.10347475  0.68337571  0.40321417    -0.12000
F1750       F  0.06137131  0.68642330  0.43839925    -0.14300
F1751       F  0.12914195  0.77421505  0.42811458    -0.14300
F1752       F  0.08748777  0.77803371  0.46261418    -0.12000
C1753       C  0.81645415  0.13129386  0.11561596     0.26100
C1754       C  0.79663523  0.13785611  0.13523620    -0.22100
C1755       C  0.76946699  0.14119924  0.12637176     0.21000
C1756       C  0.76254495  0.13823734  0.09875968     0.26000
C1757       C  0.78260628  0.13205070  0.07960638    -0.22000
C1758       C  0.80942746  0.12836408  0.08837194     0.20900
F1759       F  0.82892690  0.12086330  0.07055390    -0.12000
F1760       F  0.84304450  0.12793953  0.12244251    -0.14300
F1761       F  0.73631967  0.14163479  0.09068985    -0.14300
F1762       F  0.74962941  0.14743584  0.14425072    -0.12000
C1763       C  0.90611469  0.94486515  0.28634091     0.26100
C1764       C  0.89126705  0.95847757  0.30661821    -0.22100
C1765       C  0.89585951  0.95114032  0.33387163     0.21000
C1766       C  0.91459375  0.93014688  0.34048387     0.26000
C1767       C  0.92842043  0.91606580  0.31984224    -0.22000
C1768       C  0.92366814  0.92339686  0.29279800     0.20900
F1769       F  0.93721576  0.91037586  0.27260245    -0.12000
F1770       F  0.90513120  0.95346680  0.26032363    -0.14300
F1771       F  0.91974706  0.92401952  0.36684819    -0.14300
F1772       F  0.88236445  0.96437013  0.35395243    -0.12000
C1773       C  0.82187016  0.06109881  0.28478024     0.26100
C1774       C  0.84728167  0.04812215  0.28230989    -0.22100
C1775       C  0.86675348  0.05921683  0.26558353     0.21000
C1776       C  0.86034610  0.08152486  0.24970082     0.26000
C1777       C  0.83412202  0.09366442  0.25029450    -0.22000
C1778       C  0.81524032  0.08383881  0.26885245     0.20900
F1779       F  0.79024378  0.09551987  0.27101688    -0.12000
F1780       F  0.80282671  0.05035131  0.30100785    -0.14300
F1781       F  0.87970976  0.08982169  0.23239310    -0.14300
F1782       F  0.89069180  0.04609811  0.26121973    -0.12000
C1783       C  0.03174894  0.93921926  0.25686148     0.26100
C1784       C  0.05124900  0.95213673  0.27382296    -0.22100
C1785       C  0.05862918  0.93686898  0.29737576     0.21000
C1786       C  0.04701325  0.91077443  0.30361773     0.26000
C1787       C  0.02807218  0.89734509  0.28612437    -0.22000
C1788       C  0.02001562  0.91333423  0.26309591     0.20900
F1789       F  0.99985500  0.90450487  0.24645796    -0.12000
F1790       F  0.02431864  0.95150899  0.23328100    -0.14300
F1791       F  0.05435562  0.89873116  0.32733017    -0.14300
F1792       F  0.07786347  0.94696526  0.31443606    -0.12000
C1793       C  0.93237171  0.21440289  0.13245782     0.26100
C1794       C  0.94670347  0.23373683  0.14773049    -0.22100
C1795       C  0.93546407  0.24475321  0.17139925     0.21000
C1796       C  0.91020546  0.23630247  0.17997849     0.26000
C1797       C  0.89603620  0.21613125  0.16531214    -0.22000
C1798       C  0.90716277  0.20558276  0.14116884     0.20900
F1799       F  0.89365302  0.18686578  0.12594106    -0.12000
F1800       F  0.94293619  0.20398043  0.10926564    -0.14300
F1801       F  0.89997248  0.24750609  0.20298728    -0.14300
F1802       F  0.94840994  0.26468246  0.18549706    -0.12000
C1803       C  0.22847394  0.14201508  0.09993709     0.26100
C1804       C  0.20064551  0.13614247  0.10162652    -0.22100
C1805       C  0.18832724  0.12162661  0.08022443     0.21000
C1806       C  0.20331292  0.11459956  0.05693929     0.26000
C1807       C  0.23057509  0.12251879  0.05458575    -0.22000
C1808       C  0.24311569  0.13565049  0.07659812     0.20900
F1809       F  0.26926090  0.14365111  0.07492351    -0.12000
F1810       F  0.24106409  0.15581671  0.12038682    -0.14300
F1811       F  0.19077067  0.10147365  0.03608855    -0.14300
F1812       F  0.16154258  0.11590301  0.08105122    -0.12000
C1813       C  0.12536597  0.04985297  0.25201774     0.26100
C1814       C  0.10299189  0.03921854  0.23809594    -0.22100
C1815       C  0.09422580  0.05202593  0.21391876     0.21000
C1816       C  0.10780217  0.07502743  0.20383969     0.26000
C1817       C  0.13060060  0.08557382  0.21771443    -0.22000
C1818       C  0.13876966  0.07269236  0.24229517     0.20900
F1819       F  0.16027907  0.08174704  0.25709147    -0.12000
F1820       F  0.13514161  0.03729541  0.27464691    -0.14300
F1821       F  0.09880999  0.08667216  0.18044585    -0.14300
F1822       F  0.07310315  0.04159208  0.19952840    -0.12000
C1823       C  0.08496063  0.21566145  0.16901911     0.26100
C1824       C  0.09772863  0.20366409  0.14663382    -0.22100
C1825       C  0.08443609  0.20461942  0.12120464     0.21000
C1826       C  0.05839137  0.21672982  0.11855120     0.26000
C1827       C  0.04569147  0.22913715  0.14105359    -0.22000
C1828       C  0.05961386  0.22859680  0.16622230     0.20900
F1829       F  0.05001564  0.24288667  0.18768522    -0.12000
F1830       F  0.09793577  0.21642522  0.19345758    -0.14300
F1831       F  0.04558351  0.21633077  0.09402507    -0.14300
F1832       F  0.09669608  0.19392286  0.09899545    -0.12000
C1833       C  0.86011365  0.74908578  0.27327256     0.26100
C1834       C  0.83814957  0.76759996  0.27228187    -0.22100
C1835       C  0.82667758  0.77745244  0.29627326     0.21000
C1836       C  0.83667847  0.76837894  0.32121101     0.26000
C1837       C  0.85866411  0.74977903  0.32230398    -0.22000
C1838       C  0.87040226  0.74023436  0.29825891     0.20900
F1839       F  0.89193577  0.72265599  0.29909320    -0.12000
F1840       F  0.87211827  0.74041647  0.25010293    -0.14300
F1841       F  0.82639055  0.77930403  0.34429682    -0.14300
F1842       F  0.80647892  0.79659220  0.29547121    -0.12000
C1843       C  0.78292767  0.86207713  0.08695142     0.26100
C1844       C  0.80780204  0.87395057  0.09467545    -0.22100
C1845       C  0.81933790  0.89359023  0.07792975     0.21000
C1846       C  0.80761431  0.89888796  0.05251831     0.26000
C1847       C  0.78490762  0.88411849  0.04379281    -0.22000
C1848       C  0.77195625  0.86667705  0.06141053     0.20900
F1849       F  0.74958733  0.85285660  0.05325787    -0.12000
F1850       F  0.76984435  0.84487610  0.10367350    -0.14300
F1851       F  0.81949836  0.91678389  0.03565592    -0.14300
F1852       F  0.84276659  0.90603096  0.08519396    -0.12000
C1853       C  0.84630171  0.90143235  0.26515661     0.26100
C1854       C  0.85587568  0.90020069  0.23836240    -0.22100
C1855       C  0.85922705  0.92442618  0.22394892     0.21000
C1856       C  0.85507158  0.94948180  0.23667055     0.26000
C1857       C  0.84665352  0.95071572  0.26375856    -0.22000
C1858       C  0.84129856  0.92657053  0.27755106     0.20900
F1859       F  0.83276053  0.92742746  0.30359424    -0.12000
F1860       F  0.84229067  0.87833139  0.27957232    -0.14300
F1861       F  0.86308025  0.97208646  0.22363132    -0.14300
F1862       F  0.86676678  0.92397372  0.19758660    -0.12000
C1863       C  0.99214197  0.77180021  0.17761845     0.26100
C1864       C  0.99778782  0.78809291  0.15504647    -0.22100
C1865       C  0.00196070  0.81610882  0.15962908     0.21000
C1866       C  0.00007611  0.82765671  0.18594571     0.26000
C1867       C  0.99444490  0.81140145  0.20893983    -0.22000
C1868       C  0.99093020  0.78305604  0.20410334     0.20900
F1869       F  0.98721149  0.76578185  0.22502738    -0.12000
F1870       F  0.98825152  0.74463015  0.17403360    -0.14300
F1871       F  0.00316646  0.85503334  0.18857542    -0.14300
F1872       F  0.00755311  0.83248416  0.13841603    -0.12000
C1873       C  0.90860818  0.78100484  0.13758375     0.26100
C1874       C  0.90515111  0.80958650  0.13473829    -0.22100
C1875       C  0.92493627  0.82418242  0.12086316     0.21000
C1876       C  0.94787815  0.81065157  0.11075181     0.26000
C1877       C  0.95180742  0.78248101  0.11481797    -0.22000
C1878       C  0.93188360  0.76766783  0.12791843     0.20900
F1879       F  0.93550770  0.74051861  0.13237377    -0.12000
F1880       F  0.89002039  0.76607360  0.15078656    -0.14300
F1881       F  0.96689152  0.82524641  0.09778126    -0.14300
F1882       F  0.92206923  0.85150915  0.11695503    -0.12000
C1883       C  0.18860451  0.79434935  0.31916313     0.26100
C1884       C  0.17591922  0.78738613  0.29467057    -0.22100
C1885       C  0.16131941  0.76327402  0.29175325     0.21000
C1886       C  0.15911693  0.74604432  0.31362258     0.26000
C1887       C  0.17093547  0.75337028  0.33849097    -0.22000
C1888       C  0.18581507  0.77738725  0.34134314     0.20900
F1889       F  0.19612358  0.78504669  0.36584194    -0.12000
F1890       F  0.20285957  0.81776439  0.32163846    -0.14300
F1891       F  0.14468377  0.72275213  0.31093662    -0.14300
F1892       F  0.14920223  0.75660953  0.26774717    -0.12000
C1893       C  0.08562324  0.80488290  0.13661324     0.26100
C1894       C  0.09247082  0.79091776  0.16077626    -0.22100
C1895       C  0.07822327  0.76718751  0.16728658     0.21000
C1896       C  0.05704885  0.75827085  0.15054542     0.26000
C1897       C  0.04954064  0.77301752  0.12728827    -0.22000
C1898       C  0.06406526  0.79619461  0.12028387     0.20900
F1899       F  0.05594579  0.81175195  0.09891532    -0.12000
F1900       F  0.09869699  0.82792253  0.12950741    -0.14300
F1901       F  0.04279212  0.73605264  0.15784071    -0.14300
F1902       F  0.08446722  0.75277547  0.19000385    -0.12000
C1903       C  0.10645926  0.90393204  0.20400564     0.26100
C1904       C  0.12508866  0.89008215  0.22097180    -0.22100
C1905       C  0.13072365  0.90054039  0.24696269     0.21000
C1906       C  0.11840234  0.92479104  0.25580560     0.26000
C1907       C  0.10014536  0.93895109  0.23882624    -0.22000
C1908       C  0.09417305  0.92838934  0.21285638     0.20900
F1909       F  0.07668201  0.94196035  0.19605317    -0.12000
F1910       F  0.09976997  0.89349655  0.17927434    -0.14300
F1911       F  0.12493964  0.93490944  0.28066631    -0.14300
F1912       F  0.14838626  0.88717670  0.26375077    -0.12000
C1913       C  0.23133703  0.85724320  0.07353924     0.26100
C1914       C  0.21458297  0.87702188  0.06181653    -0.22100
C1915       C  0.18901032  0.88332452  0.07219006     0.21000
C1916       C  0.18006339  0.86957547  0.09473193     0.26000
C1917       C  0.19697644  0.84976364  0.10690621    -0.22000
C1918       C  0.22267342  0.84355713  0.09601575     0.20900
F1919       F  0.23987806  0.82484101  0.10740441    -0.12000
F1920       F  0.25608143  0.85124827  0.06315569    -0.14300
F1921       F  0.15517032  0.87573151  0.10466454    -0.14300
F1922       F  0.17311925  0.90315067  0.06084387    -0.12000
C1923       C  0.00438097  0.75351327  0.77172579     0.26100
C1924       C  0.99526468  0.75976449  0.79778057    -0.22100
C1925       C  0.98426290  0.78587596  0.80302834     0.21000
C1926       C  0.98559158  0.80637676  0.78357683     0.26000
C1927       C  0.99671752  0.80075073  0.75793974    -0.22000
C1928       C  0.00442925  0.77356921  0.75171389     0.20900
F1929       F  0.01262920  0.76647304  0.72647090    -0.12000
F1930       F  0.01446665  0.72818165  0.76616251    -0.14300
F1931       F  0.97796168  0.83211287  0.79080702    -0.14300
F1932       F  0.97441930  0.79240742  0.82774709    -0.12000
C1933       C  0.15325841  0.78154416  0.73337654     0.26100
C1934       C  0.17625927  0.79746731  0.73837651    -0.22100
C1935       C  0.18667628  0.81359273  0.71752186     0.21000
C1936       C  0.17494798  0.81279052  0.69179903     0.26000
C1937       C  0.15335580  0.79536637  0.68652726    -0.22000
C1938       C  0.14192002  0.78043916  0.70750084     0.20900
F1939       F  0.12146026  0.76280457  0.70232181    -0.12000
F1940       F  0.14259886  0.76601706  0.75315179    -0.14300
F1941       F  0.18572983  0.82758334  0.67153861    -0.14300
F1942       F  0.20812959  0.83016901  0.72197868    -0.12000
C1943       C  0.07198664  0.75006172  0.81511964     0.26100
C1944       C  0.04784661  0.75869875  0.82677655    -0.22100
C1945       C  0.04479659  0.78571460  0.83618888     0.21000
C1946       C  0.06691073  0.80292098  0.83712481     0.26000
C1947       C  0.09222330  0.79333503  0.82825094    -0.22000
C1948       C  0.09413849  0.76722004  0.81572356     0.20900
F1949       F  0.11770812  0.75754470  0.80522355    -0.12000
F1950       F  0.07438831  0.72462217  0.80419384    -0.14300
F1951       F  0.06390883  0.82797574  0.84877871    -0.14300
F1952       F  0.02174998  0.79402186  0.84860008    -0.12000
C1953       C  0.17974983  0.90660888  0.93582502     0.26100
C1954       C  0.19788293  0.89765909  0.91594371    -0.22100
C1955       C  0.22605708  0.89879103  0.92136297     0.21000
C1956       C  0.23535139  0.90138552  0.94785048     0.26000
C1957       C  0.21676190  0.90606403  0.96845336    -0.22000
C1958       C  0.18940594  0.91139373  0.96202083     0.20900
F1959       F  0.17189033  0.91967307  0.98144624    -0.12000
F1960       F  0.15269652  0.90836217  0.93065804    -0.14300
F1961       F  0.26202212  0.89687573  0.95352084    -0.14300
F1962       F  0.24450882  0.89426594  0.90158631    -0.12000
C1963       C  0.10077233  0.95447292  0.71268761     0.26100
C1964       C  0.07589260  0.94809310  0.72460242    -0.22100
C1965       C  0.06786530  0.96305283  0.74789751     0.21000
C1966       C  0.08402941  0.98382767  0.75864634     0.26000
C1967       C  0.10909683  0.98941029  0.74722148    -0.22000
C1968       C  0.11742505  0.97453469  0.72425852     0.20900
F1969       F  0.14200148  0.97920055  0.71330251    -0.12000
F1970       F  0.10895065  0.94147841  0.68978133    -0.14300
F1971       F  0.07583642  0.99742182  0.78121534    -0.14300
F1972       F  0.04503130  0.95673032  0.76132956    -0.12000
C1973       C  0.17613644  0.95291240  0.78041857     0.26100
C1974       C  0.15394154  0.96974141  0.78711685    -0.22100
C1975       C  0.13498529  0.96045969  0.80574839     0.21000
C1976       C  0.13783575  0.93460688  0.81722321     0.26000
C1977       C  0.16031385  0.91777376  0.81103630    -0.22000
C1978       C  0.17936807  0.92708023  0.79233971     0.20900
F1979       F  0.20098008  0.91113104  0.78552466    -0.12000
F1980       F  0.19475852  0.96163240  0.76258382    -0.14300
F1981       F  0.11935617  0.92674371  0.83565024    -0.14300
F1982       F  0.11452680  0.97713325  0.81416366    -0.12000
C1983       C  0.18340522  0.11194992  0.78491997     0.26100
C1984       C  0.17725788  0.11838648  0.81206383    -0.22100
C1985       C  0.16080283  0.10056031  0.82668254     0.21000
C1986       C  0.15200560  0.07622006  0.81501471     0.26000
C1987       C  0.15892561  0.06943614  0.78838841    -0.22000
C1988       C  0.17412306  0.08761300  0.77313261     0.20900
F1989       F  0.18086683  0.08122989  0.74725516    -0.12000
F1990       F  0.19948502  0.12840677  0.77028672    -0.14300
F1991       F  0.13723231  0.05886345  0.83000413    -0.14300
F1992       F  0.15340302  0.10651456  0.85248676    -0.12000
C1993       C  0.24406823  0.13494630  0.91949652     0.26100
C1994       C  0.26550460  0.14935045  0.90775540    -0.22100
C1995       C  0.28602490  0.16017941  0.92459074     0.21000
C1996       C  0.28535192  0.15588394  0.95258735     0.26000
C1997       C  0.26362751  0.14184608  0.96368204    -0.22000
C1998       C  0.24272086  0.13226833  0.94716085     0.20900
F1999       F  0.22187560  0.11825062  0.95780825    -0.12000
F2000       F  0.22410656  0.12318650  0.90442743    -0.14300
F2001       F  0.30602034  0.16467795  0.96868682    -0.14300
F2002       F  0.30684118  0.17421529  0.91397472    -0.12000
C2003       C  0.12889511  0.19922001  0.90386565     0.26100
C2004       C  0.14027560  0.21031762  0.88043138    -0.22100
C2005       C  0.12777347  0.23326066  0.86808038     0.21000
C2006       C  0.10310533  0.24322999  0.87749257     0.26000
C2007       C  0.09110456  0.23081032  0.89954286    -0.22000
C2008       C  0.10440001  0.20949892  0.91332730     0.20900
F2009       F  0.09267829  0.19740972  0.93481472    -0.12000
F2010       F  0.14059091  0.17757250  0.91682961    -0.14300
F2011       F  0.09034986  0.26419880  0.86443790    -0.14300
F2012       F  0.13916047  0.24584492  0.84670138    -0.12000
C2013       C  0.95996104  0.92880233  0.76402254     0.26100
C2014       C  0.93796384  0.94238108  0.75170211    -0.22100
C2015       C  0.93392718  0.93946444  0.72362271     0.21000
C2016       C  0.95173994  0.92327526  0.70799166     0.26000
C2017       C  0.97318122  0.90814608  0.72044594    -0.22000
C2018       C  0.97721278  0.91191758  0.74877765     0.20900
F2019       F  0.99861400  0.89985491  0.76179833    -0.12000
F2020       F  0.96495734  0.93215279  0.79096218    -0.14300
F2021       F  0.94887049  0.92431333  0.68069062    -0.14300
F2022       F  0.91290136  0.95275210  0.71120183    -0.12000
C2023       C  0.86777108  0.06099956  0.80538755     0.26100
C2024       C  0.87874427  0.06928986  0.83067859    -0.22100
C2025       C  0.90013168  0.05392838  0.84230198     0.21000
C2026       C  0.90912840  0.02973995  0.82954786     0.26000
C2027       C  0.89699359  0.02105557  0.80502732    -0.22000
C2028       C  0.87682180  0.03715162  0.79278092     0.20900
F2029       F  0.86513579  0.02915609  0.76900177    -0.12000
F2030       F  0.84791523  0.07594837  0.79285296    -0.14300
F2031       F  0.92871734  0.01415888  0.84168296    -0.14300
F2032       F  0.91119113  0.06146669  0.86650442    -0.12000
C2033       C  0.98979696  0.18390013  0.90744266     0.26100
C2034       C  0.99498867  0.21120298  0.90062428    -0.22100
C2035       C  0.97563924  0.22632978  0.88617151     0.21000
C2036       C  0.95164304  0.21428781  0.87779351     0.26000
C2037       C  0.94651866  0.18647955  0.88341097    -0.22000
C2038       C  0.96547423  0.17162181  0.89910444     0.20900
F2039       F  0.96106543  0.14509135  0.90524551    -0.20600
F2040       F  0.00844743  0.16913552  0.92182821    -0.14300
F2041       F  0.93363883  0.23003892  0.86364100    -0.14300
F2042       F  0.98036867  0.25266621  0.87940432    -0.12000
C2043       C  0.80317452  0.14959425  0.93865443     0.26100
C2044       C  0.82453401  0.13181563  0.93104482    -0.22100
C2045       C  0.83206165  0.11048951  0.94868066     0.21000
C2046       C  0.81859224  0.10713980  0.97341887     0.26000
C2047       C  0.79712460  0.12485787  0.98088425    -0.22000
C2048       C  0.78981708  0.14632443  0.96339105     0.20900
F2049       F  0.76921666  0.16370718  0.96994301    -0.12000
F2050       F  0.79458108  0.16963342  0.92153545    -0.14300
F2051       F  0.82668001  0.08668795  0.99025843    -0.14300
F2052       F  0.85177888  0.09233145  0.94150351    -0.12000
C2053       C  0.82265984  0.80588100  0.68859914     0.26100
C2054       C  0.84096565  0.79550727  0.70813078    -0.22100
C2055       C  0.86822216  0.79142673  0.70183059     0.21000
C2056       C  0.87607729  0.79294873  0.67507616     0.26000
C2057       C  0.85671227  0.79924548  0.65479186    -0.22000
C2058       C  0.83074374  0.80828100  0.66196708     0.20900
F2059       F  0.81208613  0.81522655  0.64260202    -0.12000
F2060       F  0.79660208  0.81212568  0.69501087    -0.14300
F2061       F  0.90122104  0.78375169  0.66897186    -0.14300
F2062       F  0.88648305  0.78278777  0.72088210    -0.12000
C2063       C  0.76142063  0.83918464  0.90568173     0.26100
C2064       C  0.78826823  0.83727027  0.89679170    -0.22100
C2065       C  0.80990737  0.84192197  0.91492666     0.21000
C2066       C  0.80479467  0.85122481  0.94078070     0.26000
C2067       C  0.77800228  0.85499660  0.94915037    -0.22000
C2068       C  0.75631519  0.84782478  0.93202765     0.20900
F2069       F  0.73031272  0.85106368  0.94022759    -0.12000
F2070       F  0.74025063  0.83456152  0.88846563    -0.14300
F2071       F  0.82596188  0.86016691  0.95605751    -0.14300
F2072       F  0.83613282  0.83902439  0.90723224    -0.12000
C2073       C  0.88785686  0.88590386  0.82108061     0.26100
C2074       C  0.87453891  0.86961847  0.80151353    -0.22100
C2075       C  0.87187980  0.87937838  0.77465666     0.21000
C2076       C  0.88007830  0.90573193  0.76833048     0.26000
C2077       C  0.89130818  0.92237360  0.78854208    -0.22000
C2078       C  0.89621306  0.91200502  0.81452824     0.20900
F2079       F  0.90891333  0.92740520  0.83371183    -0.12000
F2080       F  0.89217894  0.87705820  0.84682514    -0.14300
F2081       F  0.87601191  0.91538338  0.74284603    -0.14300
F2082       F  0.86067532  0.86386996  0.75464112    -0.12000
C2083       C  0.91349082  0.74004354  0.80944117     0.26100
C2084       C  0.90412882  0.75843382  0.82936411    -0.22100
C2085       C  0.92025219  0.76348312  0.85254443     0.21000
C2086       C  0.94563690  0.75169365  0.85509515     0.26000
C2087       C  0.95545635  0.73397410  0.83501115    -0.22000
C2088       C  0.93916432  0.72783214  0.81232309     0.20900
F2089       F  0.94883077  0.71140167  0.79229754    -0.12000
F2090       F  0.89825078  0.73451250  0.78700906    -0.14300
F2091       F  0.96199034  0.76122902  0.87512789    -0.14300
F2092       F  0.91279185  0.78208150  0.87173047    -0.12000
C2093       C  0.53309879  0.27187171  0.72177207     0.26100
C2094       C  0.52667572  0.27806527  0.69466435    -0.22100
C2095       C  0.51739137  0.30440218  0.68801770     0.21000
C2096       C  0.51354330  0.32407320  0.70843646     0.26000
C2097       C  0.51914797  0.31748251  0.73578317    -0.22000
C2098       C  0.52948015  0.29143338  0.74206015     0.20900
F2099       F  0.53547830  0.28488045  0.76817124    -0.12000
F2100       F  0.54211778  0.24646257  0.72860376    -0.14300
F2101       F  0.50395770  0.34919441  0.70147420    -0.14300
F2102       F  0.51072077  0.31049759  0.66195982    -0.12000
C2103       C  0.56185388  0.20758038  0.56973222     0.26100
C2104       C  0.56361526  0.21738833  0.59675501    -0.22100
C2105       C  0.58655416  0.23341679  0.60261818     0.21000
C2106       C  0.60349548  0.24264591  0.58155242     0.26000
C2107       C  0.59602221  0.23984058  0.55371005    -0.22000
C2108       C  0.57664977  0.21916324  0.54873961     0.20900
F2109       F  0.57341413  0.20709851  0.52436700    -0.12000
F2110       F  0.54685985  0.18533394  0.56335463    -0.14300
F2111       F  0.62799472  0.25290809  0.58855130    -0.14300
F2112       F  0.59369031  0.23884092  0.62870598    -0.12000
C2113       C  0.42772178  0.21004259  0.57023698     0.26100
C2114       C  0.45582096  0.20977806  0.56537381    -0.22100
C2115       C  0.46451276  0.21969551  0.53996336     0.21000
C2116       C  0.44675701  0.23395031  0.52280811     0.26000
C2117       C  0.41906784  0.23527478  0.52836863    -0.22000
C2118       C  0.40957008  0.22173030  0.55139592     0.20900
F2119       F  0.38258806  0.22007926  0.55592311    -0.12000
F2120       F  0.41745520  0.19950370  0.59314950    -0.14300
F2121       F  0.45699241  0.24718320  0.50122830    -0.14300
F2122       F  0.49024814  0.21569371  0.53129856    -0.12000
C2123       C  0.81181325  0.97973809  0.80529438     0.26100
C2124       C  0.80952894  0.98574361  0.83309381    -0.22100
C2125       C  0.83308709  0.98497675  0.84954027     0.21000
C2126       C  0.85844620  0.97903146  0.83829092     0.26000
C2127       C  0.86071732  0.97331840  0.81050744    -0.22000
C2128       C  0.83717258  0.97350207  0.79413301     0.20900
F2129       F  0.83896921  0.96856031  0.76711791    -0.12000
F2130       F  0.78934896  0.97915969  0.78913140    -0.14300
F2131       F  0.88093224  0.97914092  0.85441392    -0.14300
F2132       F  0.83152990  0.99038873  0.87647940    -0.12000
C2133       C  0.75288206  0.92822882  0.90605785     0.26100
C2134       C  0.72985984  0.94529127  0.90797785    -0.22100
C2135       C  0.71313408  0.94145287  0.93069492     0.21000
C2136       C  0.72151413  0.92442477  0.95226299     0.26000
C2137       C  0.74726257  0.91161792  0.95217809    -0.22000
C2138       C  0.76301547  0.91443197  0.92876560     0.20900
F2139       F  0.78883308  0.90477424  0.92783571    -0.12000
F2140       F  0.76409286  0.92233481  0.88179195    -0.14300
F2141       F  0.70440602  0.92064510  0.97309426    -0.14300
F2142       F  0.68883202  0.95466915  0.93228827    -0.12000
C2143       C  0.72521658  0.07575469  0.95382900     0.26100
C2144       C  0.73704377  0.04996774  0.94837418    -0.22100
C2145       C  0.75772769  0.04031206  0.96631523     0.21000
C2146       C  0.76594208  0.05582319  0.98898427     0.26000
C2147       C  0.75402322  0.08141549  0.99427790    -0.22000
C2148       C  0.73362741  0.09124826  0.97646232     0.20900
F2149       F  0.72212312  0.11623889  0.98078327    -0.12000
F2150       F  0.70524116  0.08588834  0.93743273    -0.14300
F2151       F  0.78644230  0.04634286  0.00514315    -0.14300
F2152       F  0.77104369  0.01639438  0.96136543    -0.12000
C2153       C  0.21315312  0.01060391  0.84502478     0.26100
C2154       C  0.23822559  0.01539036  0.83295334    -0.22100
C2155       C  0.23909599  0.02079519  0.80507145     0.21000
C2156       C  0.21509000  0.02236099  0.78965319     0.26000
C2157       C  0.19001202  0.01769329  0.80172755    -0.22000
C2158       C  0.18918787  0.01153598  0.82944782     0.20900
F2159       F  0.16515563  0.00668635  0.84136508    -0.12000
F2160       F  0.21207710  0.00445016  0.87175589    -0.14300
F2161       F  0.21620644  0.02826944  0.76286981    -0.14300
F2162       F  0.26319790  0.02501751  0.79299110    -0.12000
C2163       C  0.30734380  0.94233899  0.97634858     0.26100
C2164       C  0.29633338  0.96030932  0.95691446    -0.22100
C2165       C  0.26880074  0.96798329  0.95881205     0.21000
C2166       C  0.25249725  0.95737723  0.97905753     0.26000
C2167       C  0.26292185  0.93779046  0.99725743    -0.22000
C2168       C  0.29073547  0.93088373  0.99617230     0.20900
F2169       F  0.30141104  0.91164045  0.01301000    -0.12000
F2170       F  0.33414175  0.93583175  0.97597773    -0.14300
F2171       F  0.22590725  0.96488718  0.97978584    -0.14300
F2172       F  0.25751383  0.98543703  0.94055596    -0.12000
C2173       C  0.26800611  0.06749118  0.95873926     0.26100
C2174       C  0.28480050  0.08566969  0.97304570    -0.22100
C2175       C  0.31076946  0.08993864  0.96223749     0.21000
C2176       C  0.31982304  0.07600498  0.93849407     0.26000
C2177       C  0.30274712  0.05821535  0.92336376    -0.22000
C2178       C  0.27661384  0.05417240  0.93470235     0.20900
F2179       F  0.25963999  0.03545753  0.92395295    -0.12000
F2180       F  0.24272540  0.06268937  0.96790734    -0.14300
F2181       F  0.34594584  0.07914508  0.93115938    -0.14300
F2182       F  0.32783703  0.10736156  0.97512645    -0.12000
C2183       C  0.51305111  0.68006990  0.72885323     0.26100
C2184       C  0.50998507  0.68088923  0.70037664    -0.22100
C2185       C  0.50907324  0.65594980  0.68599327     0.21000
C2186       C  0.51147092  0.63088543  0.69972726     0.26000
C2187       C  0.51438299  0.63023412  0.72811537    -0.22000
C2188       C  0.51502189  0.65501838  0.74251932     0.20900
F2189       F  0.51749674  0.65485339  0.76993421    -0.12000
F2190       F  0.51366997  0.70359311  0.74354186    -0.14300
F2191       F  0.51130880  0.60720605  0.68530686    -0.14300
F2192       F  0.50688223  0.65589194  0.65855368    -0.12000
C2193       C  0.44922266  0.77684257  0.60331979     0.26100
C2194       C  0.46520483  0.75606157  0.61603944    -0.22100
C2195       C  0.46846015  0.73117648  0.60137684     0.21000
C2196       C  0.45519157  0.72686613  0.57640192     0.26000
C2197       C  0.43817612  0.74704677  0.56502674    -0.22000
C2198       C  0.43539196  0.77206668  0.57867708     0.20900
F2199       F  0.41941443  0.79214821  0.56790508    -0.12000
F2200       F  0.44818914  0.80256622  0.61360822    -0.14300
F2201       F  0.45880830  0.70263102  0.56329653    -0.14300
F2202       F  0.48646442  0.71171983  0.60971280    -0.12000
C2203       C  0.57147820  0.73321779  0.53594212     0.26100
C2204       C  0.59708185  0.74434619  0.53212351    -0.22100
C2205       C  0.60663274  0.76392765  0.55090582     0.21000
C2206       C  0.59080060  0.77217642  0.57309865     0.26000
C2207       C  0.56546043  0.76025558  0.57757004    -0.22000
C2208       C  0.55626159  0.74032460  0.55874204     0.20900
F2209       F  0.53334841  0.72616454  0.56318586    -0.12000
F2210       F  0.56225344  0.71343916  0.51890087    -0.14300
F2211       F  0.60029677  0.79175357  0.59019898    -0.14300
F2212       F  0.63166006  0.77460291  0.54806403    -0.12000
C2213       C  0.37354500  0.80965264  0.76952590     0.26100
C2214       C  0.35869430  0.83398965  0.76381655    -0.22100
C2215       C  0.33439219  0.83138989  0.74878750     0.21000
C2216       C  0.32582490  0.80572323  0.73872855     0.26000
C2217       C  0.34120715  0.78150030  0.74319643    -0.22000
C2218       C  0.36499034  0.78382718  0.75930703     0.20900
F2219       F  0.38063842  0.76131393  0.76416793    -0.12000
F2220       F  0.39647311  0.81089168  0.78494219    -0.14300
F2221       F  0.30253685  0.80462196  0.72381537    -0.14300
F2222       F  0.31942723  0.85407144  0.74276457    -0.12000
C2223       C  0.30733537  0.84423591  0.83387218     0.26100
C2224       C  0.28405730  0.86036514  0.82903403    -0.22100
C2225       C  0.28534930  0.88397470  0.81314825     0.21000
C2226       C  0.30928116  0.89023607  0.80054489     0.26000
C2227       C  0.33218649  0.87349619  0.80449543    -0.22000
C2228       C  0.33150063  0.85097134  0.82174681     0.20900
F2229       F  0.35398089  0.83521945  0.82621024    -0.12000
F2230       F  0.30633473  0.82149157  0.84942283    -0.14300
F2231       F  0.30953534  0.91137974  0.78287954    -0.14300
F2232       F  0.26287473  0.89942491  0.80760466    -0.12000
C2233       C  0.43448873  0.85107046  0.75335108     0.26100
C2234       C  0.40969521  0.86150460  0.74343801    -0.22100
C2235       C  0.40247363  0.85659317  0.71623232     0.21000
C2236       C  0.41975213  0.84150262  0.69913518     0.26000
C2237       C  0.44449911  0.83038633  0.70905030    -0.22000
C2238       C  0.45147391  0.83531818  0.73661321     0.20900
F2239       F  0.47409690  0.82390217  0.74796543    -0.12000
F2240       F  0.44172629  0.85510404  0.77971388    -0.14300
F2241       F  0.41235929  0.83817456  0.67276070    -0.14300
F2242       F  0.37854853  0.86645721  0.70620395    -0.12000
C2243       C  0.36604841  0.92600436  0.83906666     0.26100
C2244       C  0.36286127  0.92842722  0.81073322    -0.22100
C2245       C  0.35146661  0.95333583  0.80127302     0.21000
C2246       C  0.34260103  0.97434005  0.81946311     0.26000
C2247       C  0.34493426  0.97172614  0.84817441    -0.22000
C2248       C  0.35816620  0.94730118  0.85725148     0.20900
F2249       F  0.36490186  0.94405563  0.88373162    -0.12000
F2250       F  0.37742948  0.90282314  0.84935570    -0.14300
F2251       F  0.33142990  0.99739437  0.80867521    -0.14300
F2252       F  0.34796474  0.95710970  0.77421834    -0.12000
C2253       C  0.43111436  0.92606318  0.79116172     0.26100
C2254       C  0.41319068  0.92057487  0.76971651    -0.22100
C2255       C  0.41657764  0.93345656  0.74467553     0.21000
C2256       C  0.43789612  0.95168994  0.74112176     0.26000
C2257       C  0.45615663  0.95713404  0.76264024    -0.22000
C2258       C  0.45238548  0.94402475  0.78774435     0.20900
F2259       F  0.46976031  0.94778851  0.80898632    -0.12000
F2260       F  0.42855391  0.91324573  0.81529339    -0.14300
F2261       F  0.44051609  0.96404483  0.71677219    -0.14300
F2262       F  0.39904896  0.92859100  0.72381249    -0.12000
C2263       C  0.62817773  0.76909499  0.77287149     0.26100
C2264       C  0.63102597  0.79486803  0.76119087    -0.22100
C2265       C  0.64936456  0.79857014  0.74026728     0.21000
C2266       C  0.66514629  0.77690730  0.73124058     0.26000
C2267       C  0.66263286  0.75097129  0.74285716    -0.22000
C2268       C  0.64371676  0.74696870  0.76345533     0.20900
F2269       F  0.64075201  0.72197620  0.77471247    -0.12000
F2270       F  0.61067182  0.76562725  0.79347767    -0.14300
F2271       F  0.68235762  0.78116723  0.71049394    -0.14300
F2272       F  0.65222514  0.82339676  0.72878111    -0.12000
C2273       C  0.66653024  0.81827372  0.81306013     0.26100
C2274       C  0.65581830  0.83731765  0.79463351    -0.22100
C2275       C  0.67296914  0.85160531  0.77739437     0.21000
C2276       C  0.70040235  0.84581233  0.77748788     0.26000
C2277       C  0.71082282  0.82592648  0.79487105    -0.22000
C2278       C  0.69421565  0.81252120  0.81316621     0.20900
F2279       F  0.70459029  0.79287273  0.82979077    -0.12000
F2280       F  0.64997962  0.80394484  0.82928387    -0.14300
F2281       F  0.71645331  0.85786389  0.75903973    -0.14300
F2282       F  0.66283385  0.86831840  0.75785035    -0.12000
C2283       C  0.58560727  0.81872688  0.70905566     0.26100
C2284       C  0.57888529  0.81556261  0.73646882    -0.22100
C2285       C  0.55712909  0.79893525  0.74277222     0.21000
C2286       C  0.54196604  0.78615341  0.72222980     0.26000
C2287       C  0.54780589  0.78996135  0.69440024    -0.22000
C2288       C  0.56967456  0.80710355  0.68830029     0.20900
F2289       F  0.57461792  0.81475100  0.66254728    -0.12000
F2290       F  0.60737510  0.83348217  0.70204637    -0.14300
F2291       F  0.51999966  0.77180686  0.72971004    -0.14300
F2292       F  0.55005907  0.79560491  0.76901801    -0.12000
C2293       C  0.62106855  0.88956896  0.82893015     0.26100
C2294       C  0.61965603  0.88768473  0.80050774    -0.22100
C2295       C  0.63061874  0.90926402  0.78545820     0.21000
C2296       C  0.64532852  0.93028053  0.79843360     0.26000
C2297       C  0.64867228  0.93079046  0.82688789    -0.22000
C2298       C  0.63498817  0.91095613  0.84192473     0.20900
F2299       F  0.63554371  0.91195748  0.86941176    -0.12000
F2300       F  0.60957409  0.87006043  0.84423361    -0.14300
F2301       F  0.65787241  0.94892676  0.78293482    -0.14300
F2302       F  0.62909059  0.90903307  0.75802578    -0.12000
C2303       C  0.55301711  0.88541277  0.77776979     0.26100
C2304       C  0.57174266  0.87541551  0.75916006    -0.22100
C2305       C  0.57819412  0.89038274  0.73610681     0.21000
C2306       C  0.56887316  0.91703674  0.73371982     0.26000
C2307       C  0.55313617  0.92833196  0.75438976    -0.22000
C2308       C  0.54359448  0.91196370  0.77538504     0.20900
F2309       F  0.52639750  0.92211215  0.79434773    -0.12000
F2310       F  0.54666833  0.87068171  0.79998034    -0.14300
F2311       F  0.57768040  0.93257482  0.71300865    -0.14300
F2312       F  0.59708303  0.88113767  0.71852614    -0.12000
C2313       C  0.67778347  0.19221288  0.76945657     0.26100
C2314       C  0.68259919  0.17128731  0.75046030    -0.22100
C2315       C  0.69287134  0.17841911  0.72499809     0.21000
C2316       C  0.69719905  0.20604860  0.71829081     0.26000
C2317       C  0.69121874  0.22716303  0.73696244    -0.22000
C2318       C  0.68230090  0.21964380  0.76296341     0.20900
F2319       F  0.67800117  0.23899202  0.78235447    -0.12000
F2320       F  0.66777564  0.18615184  0.79412780    -0.14300
F2321       F  0.70636104  0.21213884  0.69328684    -0.14300
F2322       F  0.69875225  0.15851189  0.70666304    -0.12000
C2323       C  0.71114012  0.14635342  0.81853543     0.26100
C2324       C  0.71303445  0.13734639  0.79160762    -0.22100
C2325       C  0.73685175  0.14136283  0.77714893     0.21000
C2326       C  0.75902337  0.15350703  0.78975416     0.26000
C2327       C  0.75761089  0.16129461  0.81710120    -0.22000
C2328       C  0.73351325  0.15800321  0.83135485     0.20900
F2329       F  0.73177922  0.16609569  0.85765894    -0.12000
F2330       F  0.68751356  0.14480633  0.83206398    -0.14300
F2331       F  0.78231901  0.15618430  0.77575778    -0.14300
F2332       F  0.73855017  0.13336530  0.75080856    -0.12000
C2333       C  0.61810718  0.13815135  0.68028479     0.26100
C2334       C  0.59856126  0.15762577  0.68821390    -0.22100
C2335       C  0.59883293  0.16738420  0.71509959     0.21000
C2336       C  0.61806059  0.15744783  0.73383491     0.26000
C2337       C  0.63714803  0.13741906  0.72603888    -0.22000
C2338       C  0.63722599  0.12806177  0.69909353     0.20900
F2339       F  0.65601173  0.10936290  0.69094910    -0.12000
F2340       F  0.61793054  0.12814738  0.65457735    -0.14300
F2341       F  0.61772363  0.16699517  0.75972445    -0.14300
F2342       F  0.58038255  0.18650775  0.72315743    -0.12000
C2343       C  0.68514962  0.05792257  0.84275100     0.26100
C2344       C  0.70141619  0.03536065  0.83428071    -0.22100
C2345       C  0.70701999  0.03373875  0.80620025     0.21000
C2346       C  0.69969328  0.05518669  0.78829809     0.26000
C2347       C  0.68566326  0.07866274  0.79749470    -0.22000
C2348       C  0.67763437  0.07914276  0.82474988     0.20900
F2349       F  0.66110136  0.09949623  0.83378375    -0.12000
F2350       F  0.67462343  0.05880615  0.86797013    -0.14300
F2351       F  0.70614440  0.05284406  0.76173439    -0.14300
F2352       F  0.71905076  0.01098127  0.79574326    -0.12000
C2353       C  0.61057388  0.04577592  0.73361526     0.26100
C2354       C  0.59042327  0.04748748  0.75347308    -0.22100
C2355       C  0.59303885  0.06684069  0.77459429     0.21000
C2356       C  0.61525246  0.08396326  0.77595194     0.26000
C2357       C  0.63548710  0.08204317  0.75647550    -0.22000
C2358       C  0.63320148  0.06282438  0.73530089     0.20900
F2359       F  0.65298369  0.06030730  0.71659803    -0.12000
F2360       F  0.60872559  0.02722587  0.71312853    -0.14300
F2361       F  0.61676596  0.10294286  0.79609167    -0.14300
F2362       F  0.57360783  0.06979010  0.79365508    -0.12000
C2363       C  0.37213602  0.18513902  0.81507143     0.26100
C2364       C  0.38154470  0.18348278  0.78848951    -0.22100
C2365       C  0.36418056  0.18991890  0.76653429     0.21000
C2366       C  0.33734330  0.19724338  0.77115442     0.26000
C2367       C  0.32784683  0.19805217  0.79769844    -0.22000
C2368       C  0.34538065  0.19255146  0.81967503     0.20900
F2369       F  0.33635740  0.19388651  0.84554176    -0.12000
F2370       F  0.38894031  0.18015909  0.83649218    -0.14300
F2371       F  0.32019982  0.20152106  0.74977255    -0.14300
F2372       F  0.37293180  0.18789054  0.74062847    -0.12000
C2373       C  0.42167522  0.25216105  0.73196662     0.26100
C2374       C  0.39931602  0.26211630  0.74657702    -0.22100
C2375       C  0.39660443  0.25433730  0.77361915     0.21000
C2376       C  0.41267712  0.23289743  0.78358932     0.26000
C2377       C  0.42780698  0.21679499  0.76520295    -0.22000
C2378       C  0.43740839  0.23077547  0.74275000     0.20900
F2379       F  0.46209988  0.22495208  0.73248040    -0.12000
F2380       F  0.42674981  0.26103769  0.70662883    -0.14300
F2381       F  0.41123280  0.22608253  0.81010577    -0.14300
F2382       F  0.37723602  0.26590256  0.78945552    -0.12000
C2383       C  0.47862166  0.15463884  0.71939781     0.26100
C2384       C  0.45447660  0.16956846  0.72462792    -0.22100
C2385       C  0.44340109  0.18432367  0.70231768     0.21000
C2386       C  0.45940729  0.18992675  0.67935303     0.26000
C2387       C  0.48455350  0.17618050  0.67524023    -0.22000
C2388       C  0.49061515  0.15500628  0.69371548     0.20900
F2389       F  0.50686417  0.13361991  0.68666718    -0.12000
F2390       F  0.49133999  0.13985445  0.73898908    -0.14300
F2391       F  0.45054119  0.20935239  0.66172883    -0.14300
F2392       F  0.41792287  0.19502208  0.70350393    -0.12000
C2393       C  0.38300881  0.10525149  0.78880348     0.26100
C2394       C  0.40092861  0.12436992  0.80040821    -0.22100
C2395       C  0.40677530  0.12227355  0.82840031     0.21000
C2396       C  0.39444036  0.10229246  0.84442936     0.26000
C2397       C  0.37605145  0.08356493  0.83301309    -0.22000
C2398       C  0.37064199  0.08519142  0.80487708     0.20900
F2399       F  0.35281134  0.06780405  0.79305459    -0.12000
F2400       F  0.37720547  0.10624426  0.76185908    -0.14300
F2401       F  0.40109980  0.10065368  0.87114733    -0.14300
F2402       F  0.42503294  0.13921889  0.84023221    -0.12000
C2403       C  0.48167468  0.08725590  0.78135084     0.26100
C2404       C  0.48032913  0.07064454  0.75809407    -0.22100
C2405       C  0.46245173  0.07728787  0.73653332     0.21000
C2406       C  0.44622462  0.10053647  0.73825969     0.26000
C2407       C  0.44808594  0.11699339  0.76130559    -0.22000
C2408       C  0.46558939  0.11036444  0.78289016     0.20900
F2409       F  0.46786239  0.12695342  0.80496840    -0.12000
F2410       F  0.49893881  0.08158938  0.80234188    -0.14300
F2411       F  0.42915133  0.10731608  0.71747893    -0.14300
F2412       F  0.46032829  0.06117300  0.71412470    -0.12000
C2413       C  0.71760402  0.48673896  0.27889489     0.26100
C2414       C  0.68961122  0.48840335  0.28436337    -0.22100
C2415       C  0.68139231  0.48852113  0.31151055     0.21000
C2416       C  0.70071248  0.48654454  0.33264768     0.26000
C2417       C  0.72857463  0.48426373  0.32694022    -0.22000
C2418       C  0.73669787  0.48447678  0.29991114     0.20900
F2419       F  0.76347765  0.48368051  0.29400764    -0.12000
F2420       F  0.72667777  0.48819436  0.25313878    -0.14300
F2421       F  0.69210476  0.48738065  0.35855923    -0.14300
F2422       F  0.65467510  0.49008642  0.31753453    -0.12000
C2423       C  0.54951076  0.55602134  0.21303989     0.26100
C2424       C  0.54044207  0.55352798  0.23960290    -0.22100
C2425       C  0.55575465  0.53756651  0.25790593     0.21000
C2426       C  0.58029543  0.52524525  0.25018858     0.26000
C2427       C  0.59069368  0.52913529  0.22389760    -0.22000
C2428       C  0.57400141  0.54370045  0.20513117     0.20900
F2429       F  0.58100319  0.54551722  0.17872327    -0.12000
F2430       F  0.53530269  0.57171867  0.19507881    -0.14300
F2431       F  0.59279735  0.50847752  0.26829349    -0.14300
F2432       F  0.54745678  0.53496567  0.28387999    -0.12000
C2433       C  0.57079549  0.42643959  0.24119781     0.26100
C2434       C  0.57512256  0.42415881  0.21321938    -0.22100
C2435       C  0.56641269  0.40092703  0.19908840     0.21000
C2436       C  0.55184787  0.38100038  0.21253806     0.26000
C2437       C  0.54551649  0.38449891  0.24002372    -0.22000
C2438       C  0.55557869  0.40707552  0.25438790     0.20900
F2439       F  0.54934191  0.41141685  0.28070419    -0.12000
F2440       F  0.58092643  0.44779801  0.25560745    -0.14300
F2441       F  0.54344298  0.35857725  0.19868507    -0.14300
F2442       F  0.57115675  0.39816367  0.17218012    -0.12000
C2443       C  0.84479737  0.81691437  0.00961663     0.26100
C2444       C  0.83293010  0.79133133  0.00465556    -0.22100
C2445       C  0.80452409  0.79013216  0.00164222     0.21000
C2446       C  0.78866394  0.81401950  0.00113596     0.26000
C2447       C  0.80067601  0.83963664  0.00398775    -0.22000
C2448       C  0.82871170  0.84088726  0.00955264     0.20900
F2449       F  0.84085107  0.86544633  0.01232070    -0.12000
F2450       F  0.87207074  0.81892440  0.01260465    -0.14300
F2451       F  0.76151119  0.81230608  0.99694543    -0.14300
F2452       F  0.79210798  0.76571353  0.99874724    -0.12000
C2453       C  0.97518696  0.71796591  0.92859096     0.26100
C2454       C  0.95711683  0.69621519  0.92886253    -0.22100
C2455       C  0.95604862  0.67797531  0.90669850     0.21000
C2456       C  0.97055684  0.68336907  0.88330145     0.26000
C2457       C  0.98662264  0.70664605  0.88223430    -0.22000
C2458       C  0.98972609  0.72316724  0.90550621     0.20900
F2459       F  0.00367644  0.74675765  0.90481310    -0.12000
F2460       F  0.97628940  0.73636119  0.94927255    -0.14300
F2461       F  0.96805033  0.66664373  0.86139051    -0.14300
F2462       F  0.93983490  0.65583364  0.90728343    -0.12000
C2463       C  0.93678683  0.70876364  0.05550145     0.26100
C2464       C  0.92561313  0.72368032  0.03339290    -0.22100
C2465       C  0.93851450  0.74860372  0.02707266     0.21000
C2466       C  0.96001741  0.75900426  0.04313130     0.26000
C2467       C  0.96983788  0.74482831  0.06595843    -0.22000
C2468       C  0.95819562  0.71938174  0.07162422     0.20900
F2469       F  0.96759710  0.70466798  0.09309671    -0.12000
F2470       F  0.92805329  0.68335469  0.06114197    -0.14300
F2471       F  0.97102806  0.78325972  0.03650380    -0.14300
F2472       F  0.93054892  0.76291031  0.00479885    -0.12000
C2473       C  0.84359913  0.18989473  0.02022525     0.26100
C2474       C  0.82901925  0.21471232  0.02298543    -0.22100
C2475       C  0.80134786  0.21357925  0.02939211     0.21000
C2476       C  0.78847245  0.18828736  0.03256971     0.26000
C2477       C  0.80287063  0.16346591  0.02926346    -0.22000
C2478       C  0.83062592  0.16458743  0.02302454     0.20900
F2479       F  0.84514791  0.14113082  0.01943795    -0.12000
F2480       F  0.87028001  0.19019884  0.01399440    -0.14300
F2481       F  0.76157925  0.18795246  0.03785851    -0.14300
F2482       F  0.78685324  0.23708273  0.03284463    -0.12000
C2483       C  0.99318123  0.28119663  0.93556652     0.26100
C2484       C  0.00237035  0.25495961  0.94324957    -0.22100
C2485       C  0.98412933  0.23735964  0.95556478     0.21000
C2486       C  0.95700080  0.24495716  0.95845740     0.26000
C2487       C  0.94771954  0.27141042  0.95158312    -0.22000
C2488       C  0.96612879  0.28942755  0.93992844     0.20900
F2489       F  0.95818228  0.31538411  0.93399595    -0.12000
F2490       F  0.01011982  0.29840200  0.92288861    -0.14300
F2491       F  0.93995575  0.22719710  0.97024584    -0.14300
F2492       F  0.99234548  0.21193196  0.96325853    -0.12000
C2493       C  0.94509576  0.28695448  0.05128701     0.26100
C2494       C  0.91643375  0.28773969  0.05565399    -0.22100
C2495       C  0.90956051  0.28212490  0.08284959     0.21000
C2496       C  0.92986229  0.27716788  0.10342850     0.26000
C2497       C  0.95770214  0.27139050  0.09719877    -0.22000
C2498       C  0.96352350  0.27385752  0.06950846     0.20900
F2499       F  0.98778401  0.26499702  0.05997219    -0.12000
F2500       F  0.95640109  0.30136078  0.03108564    -0.14300
F2501       F  0.92182144  0.27925746  0.12941618    -0.14300
F2502       F  0.88316347  0.28241290  0.09011689    -0.12000
C2503       C  0.69075762  0.49408555  0.67592247     0.26100
C2504       C  0.70585628  0.49043752  0.70042991    -0.22100
C2505       C  0.73441311  0.48773651  0.69759047     0.21000
C2506       C  0.74702846  0.48811589  0.67181370     0.26000
C2507       C  0.73199541  0.49140224  0.64748723    -0.22000
C2508       C  0.70354067  0.49446110  0.65005332     0.20900
F2509       F  0.68786728  0.49702404  0.62738684    -0.12000
F2510       F  0.66334809  0.49616228  0.67676568    -0.14300
F2511       F  0.77433252  0.48494039  0.67056665    -0.14300
F2512       F  0.75053444  0.48508806  0.71992990    -0.12000
C2513       C  0.58961101  0.39985202  0.82288328     0.26100
C2514       C  0.59198765  0.42173989  0.80488180    -0.22100
C2515       C  0.57236683  0.42567561  0.78416309     0.21000
C2516       C  0.55048659  0.40870471  0.78199530     0.26000
C2517       C  0.54846207  0.38646326  0.79936842    -0.22000
C2518       C  0.56798318  0.38192454  0.81985349     0.20900
F2519       F  0.56649565  0.35976370  0.83612271    -0.12000
F2520       F  0.60826400  0.39573928  0.84295721    -0.14300
F2521       F  0.53220656  0.41271923  0.76152316    -0.14300
F2522       F  0.57508616  0.44504458  0.76485069    -0.12000
C2523       C  0.59809834  0.51687360  0.75653419     0.26100
C2524       C  0.61562535  0.52320647  0.77903433    -0.22100
C2525       C  0.60312599  0.54161004  0.79807913     0.21000
C2526       C  0.57645884  0.55370071  0.79406431     0.26000
C2527       C  0.55909558  0.54720517  0.77171086    -0.22000
C2528       C  0.57116355  0.52860215  0.75289845     0.20900
F2529       F  0.55692515  0.52200102  0.73013431    -0.12000
F2530       F  0.60681245  0.49842845  0.73785893    -0.14300
F2531       F  0.56769791  0.57254802  0.81236516    -0.14300
F2532       F  0.61618400  0.54768003  0.82161805    -0.12000
C2533       C  0.77663754  0.34657500  0.80744118     0.26100
C2534       C  0.76124997  0.35135513  0.83061410    -0.22100
C2535       C  0.73549858  0.34040913  0.83285751     0.21000
C2536       C  0.72455005  0.32554209  0.81165347     0.26000
C2537       C  0.73872389  0.32277688  0.78709487    -0.22000
C2538       C  0.76523519  0.33279039  0.78539004     0.20900
F2539       F  0.77952823  0.33053917  0.76216163    -0.12000
F2540       F  0.80234011  0.35586391  0.80610642    -0.14300
F2541       F  0.69959714  0.31475426  0.81494597    -0.14300
F2542       F  0.72121651  0.34380410  0.85599350    -0.12000
C2543       C  0.84137951  0.29675005  0.85581933     0.26100
C2544       C  0.82667448  0.27255608  0.85893391    -0.22100
C2545       C  0.79908745  0.27410961  0.86570764     0.21000
C2546       C  0.78649300  0.29940664  0.86946446     0.26000
C2547       C  0.80120010  0.32330902  0.86617399    -0.22000
C2548       C  0.82858194  0.32201719  0.85934865     0.20900
F2549       F  0.84290139  0.34526836  0.85642746    -0.12000
F2550       F  0.86797975  0.29600282  0.84912293    -0.14300
F2551       F  0.76018734  0.30059369  0.87709815    -0.14300
F2552       F  0.78456021  0.25117092  0.86969389    -0.12000
C2553       C  0.73131202  0.43577861  0.80822328     0.26100
C2554       C  0.70584273  0.44554109  0.81813534    -0.22100
C2555       C  0.70091956  0.43681178  0.84538305     0.21000
C2556       C  0.71915612  0.41919869  0.86073956     0.26000
C2557       C  0.74385152  0.40871238  0.85015753    -0.22000
C2558       C  0.74924408  0.41780572  0.82341011     0.20900
F2559       F  0.77297943  0.41011273  0.81189764    -0.12000
F2560       F  0.74034452  0.44459234  0.78424008    -0.14300
F2561       F  0.71205421  0.41193409  0.88611649    -0.14300
F2562       F  0.67801165  0.44563547  0.85777325    -0.12000
C2563       C  0.79649847  0.32943083  0.93830481     0.26100
C2564       C  0.80647859  0.35069315  0.92192148    -0.22100
C2565       C  0.83355916  0.35816055  0.92773791     0.21000
C2566       C  0.84963703  0.34531327  0.94870597     0.26000
C2567       C  0.84000156  0.32355579  0.96505032    -0.22000
C2568       C  0.81233921  0.31690814  0.95968093     0.20900
F2569       F  0.79953345  0.29937379  0.97601473    -0.12000
F2570       F  0.77087162  0.32065291  0.93378353    -0.14300
F2571       F  0.87508732  0.35461869  0.95304615    -0.14300
F2572       F  0.84493590  0.37786678  0.91261552    -0.12000
C2573       C  0.78580760  0.43157871  0.90756435     0.26100
C2574       C  0.77234522  0.40721299  0.91233653    -0.22100
C2575       C  0.76246537  0.40099748  0.93793479     0.21000
C2576       C  0.76596076  0.41943294  0.95894406     0.26000
C2577       C  0.77933938  0.44390651  0.95415124    -0.22000
C2578       C  0.78931256  0.45002875  0.92860283     0.20900
F2579       F  0.80114037  0.47434743  0.92385358    -0.12000
F2580       F  0.79615869  0.43699918  0.88285178    -0.14300
F2581       F  0.75562034  0.41396558  0.98367034    -0.14300
F2582       F  0.74952259  0.37716934  0.94238962    -0.12000
C2583       C  0.77461727  0.64558748  0.80070198     0.26100
C2584       C  0.75871482  0.64590697  0.82404038    -0.22100
C2585       C  0.73079945  0.65175004  0.82159789     0.21000
C2586       C  0.71929303  0.65862190  0.79631688     0.26000
C2587       C  0.73554769  0.65959645  0.77317218    -0.22000
C2588       C  0.76320670  0.65258462  0.77551872     0.20900
F2589       F  0.77927137  0.65298669  0.75342183    -0.12000
F2590       F  0.80133446  0.63876136  0.80240619    -0.14300
F2591       F  0.69272930  0.66616994  0.79476310    -0.14300
F2592       F  0.71495728  0.65196334  0.84385867    -0.12000
C2593       C  0.76487333  0.70377300  0.85794798     0.26100
C2594       C  0.78823683  0.68721115  0.85621640    -0.22100
C2595       C  0.80854338  0.69389357  0.83794182     0.21000
C2596       C  0.80503304  0.71628206  0.82078863     0.26000
C2597       C  0.78113901  0.73217919  0.82191948    -0.22000
C2598       C  0.76131106  0.72608788  0.84091456     0.20900
F2599       F  0.73790068  0.74097807  0.84199870    -0.12000
F2600       F  0.74427578  0.69646485  0.87418884    -0.14300
F2601       F  0.82492423  0.72251217  0.80322206    -0.14300
F2602       F  0.83067483  0.67736859  0.83529512    -0.12000
C2603       C  0.72767364  0.59086425  0.87255434     0.26100
C2604       C  0.75185840  0.59482545  0.85854464    -0.22100
C2605       C  0.75714797  0.57948676  0.83501511     0.21000
C2606       C  0.73862318  0.56017108  0.82579151     0.26000
C2607       C  0.71457357  0.55609035  0.83987157    -0.22000
C2608       C  0.70916652  0.57142407  0.86331676     0.20900
F2609       F  0.68602849  0.56743173  0.87717836    -0.12000
F2610       F  0.72142493  0.60674637  0.89430557    -0.14300
F2611       F  0.74378869  0.54568133  0.80284465    -0.14300
F2612       F  0.78002738  0.58359890  0.82074553    -0.12000
C2613       C  0.83725709  0.64900974  0.91701534     0.26100
C2614       C  0.81211353  0.66119419  0.91030984    -0.22100
C2615       C  0.80309548  0.68321574  0.92632051     0.21000
C2616       C  0.81940846  0.69363967  0.94760237     0.26000
C2617       C  0.84640610  0.68399972  0.95205743    -0.22000
C2618       C  0.85388430  0.65989776  0.93770629     0.20900
F2619       F  0.87680629  0.64580627  0.94466063    -0.12000
F2620       F  0.84559226  0.62603519  0.90380640    -0.14300
F2621       F  0.80694007  0.70990552  0.96596649    -0.14300
F2622       F  0.77744640  0.69312227  0.92297519    -0.12000
C2623       C  0.79816494  0.57710880  0.90856166     0.26100
C2624       C  0.78547463  0.60261965  0.91256261    -0.22100
C2625       C  0.77153835  0.60794458  0.93663997     0.21000
C2626       C  0.76868100  0.58721113  0.95568788     0.26000
C2627       C  0.77998796  0.56115305  0.95091044    -0.22000
C2628       C  0.79566634  0.55652436  0.92779337     0.20900
F2629       F  0.80772517  0.53183211  0.92341270    -0.12000
F2630       F  0.81254495  0.57208356  0.88576077    -0.14300
F2631       F  0.75490589  0.59250041  0.97879173    -0.14300
F2632       F  0.75954527  0.63269759  0.94100485    -0.12000
C2633       C  0.69680372  0.68476591  0.16341419     0.26100
C2634       C  0.72364350  0.67865926  0.15687866    -0.22100
C2635       C  0.74458566  0.68169839  0.17613564     0.21000
C2636       C  0.73844781  0.68877153  0.20252365     0.26000
C2637       C  0.71129627  0.69167395  0.20982251    -0.22000
C2638       C  0.69056734  0.69130539  0.19003372     0.20900
F2639       F  0.66420916  0.69457846  0.19706688    -0.12000
F2640       F  0.67661781  0.68198763  0.14466448    -0.14300
F2641       F  0.75855944  0.68841224  0.22162081    -0.14300
F2642       F  0.77046943  0.67418508  0.17037569    -0.12000
C2643       C  0.78986081  0.70182861  0.12016013     0.26100
C2644       C  0.76188138  0.69924043  0.11527470    -0.22100
C2645       C  0.74544794  0.72261341  0.11214565     0.21000
C2646       C  0.75644079  0.74828507  0.11643040     0.26000
C2647       C  0.78407922  0.75053711  0.12286511    -0.22000
C2648       C  0.80105431  0.72746315  0.12288692     0.20900
F2649       F  0.82762010  0.72944174  0.13016118    -0.12000
F2650       F  0.80577061  0.67974037  0.12576810    -0.14300
F2651       F  0.73980945  0.77063449  0.11700149    -0.14300
F2652       F  0.71847900  0.72032093  0.10703761    -0.12000
C2653       C  0.66534920  0.59229867  0.14174782     0.26100
C2654       C  0.67649107  0.57509297  0.16177579    -0.22100
C2655       C  0.70239804  0.58040111  0.17244128     0.21000
C2656       C  0.71731914  0.60226214  0.16272670     0.26000
C2657       C  0.70659806  0.61892049  0.14202001    -0.22000
C2658       C  0.68042463  0.61398540  0.13175219     0.20900
F2659       F  0.67017570  0.62917840  0.11098494    -0.12000
F2660       F  0.64058019  0.58701439  0.13080892    -0.14300
F2661       F  0.74276799  0.60639211  0.17255444    -0.14300
F2662       F  0.71338382  0.56393052  0.19182826    -0.12000
C2663       C  0.78071098  0.66988995  0.06142515     0.26100
C2664       C  0.78091723  0.65087026  0.08247488    -0.22100
C2665       C  0.80485448  0.63604131  0.08872709     0.21000
C2666       C  0.82844894  0.64062047  0.07421826     0.26000
C2667       C  0.82824467  0.66012265  0.05363308    -0.22000
C2668       C  0.80430233  0.67481978  0.04742944     0.20900
F2669       F  0.80405889  0.69436939  0.02802789    -0.12000
F2670       F  0.75793973  0.68465515  0.05535577    -0.14300
F2671       F  0.85154095  0.62649289  0.08046960    -0.14300
F2672       F  0.80613388  0.61933292  0.11053016    -0.12000
C2673       C  0.73444786  0.58183560  0.05160408     0.26100
C2674       C  0.75272280  0.56101982  0.05926320    -0.22100
C2675       C  0.76413730  0.56016816  0.08538404     0.21000
C2676       C  0.75892741  0.58154116  0.10317440     0.26000
C2677       C  0.74268821  0.60345608  0.09438281    -0.22000
C2678       C  0.72941539  0.60308453  0.06927304     0.20900
F2679       F  0.71311741  0.62425033  0.06130250    -0.12000
F2680       F  0.72281908  0.58241331  0.02648816    -0.14300
F2681       F  0.77077829  0.58165609  0.12816305    -0.14300
F2682       F  0.78032382  0.53894165  0.09338133    -0.12000
C2683       C  0.77165399  0.31535392  0.15437294     0.26100
C2684       C  0.77731001  0.33915175  0.16912077    -0.22100
C2685       C  0.79143344  0.33757463  0.19397017     0.21000
C2686       C  0.79806732  0.31214165  0.20494261     0.26000
C2687       C  0.79191018  0.28840151  0.19027936    -0.22000
C2688       C  0.77952996  0.29010915  0.16458965     0.20900
F2689       F  0.77309590  0.26715298  0.15041862    -0.12000
F2690       F  0.75636543  0.31643384  0.13134708    -0.14300
F2691       F  0.81004158  0.31060983  0.22983925    -0.14300
F2692       F  0.79763475  0.36064522  0.20797296    -0.12000
C2693       C  0.71947783  0.34244066  0.19981787     0.26100
C2694       C  0.73340874  0.36726821  0.20015773    -0.22100
C2695       C  0.74117643  0.37848629  0.22530040     0.21000
C2696       C  0.73643604  0.36444540  0.24956070     0.26000
C2697       C  0.72368350  0.33873539  0.24929474    -0.22000
C2698       C  0.71473337  0.32828658  0.22393795     0.20900
F2699       F  0.70211405  0.30386519  0.22218483    -0.12000
F2700       F  0.71164417  0.33114924  0.17579577    -0.14300
F2701       F  0.74591348  0.37536496  0.27313686    -0.14300
F2702       F  0.75527539  0.40206683  0.22625755    -0.12000
C2703       C  0.66950828  0.43870796  0.15913739     0.26100
C2704       C  0.67522407  0.46053070  0.17716415    -0.22100
C2705       C  0.70261255  0.46439010  0.18485119     0.21000
C2706       C  0.72220188  0.44417470  0.17957921     0.26000
C2707       C  0.71510641  0.42043055  0.16537582    -0.22000
C2708       C  0.68900660  0.41835962  0.15418668     0.20900
F2709       F  0.68239954  0.39661949  0.13834217    -0.12000
F2710       F  0.64568624  0.43749125  0.14518033    -0.14300
F2711       F  0.74811515  0.44775759  0.18833643    -0.14300
F2712       F  0.71028559  0.48733206  0.19832806    -0.12000
C2713       C  0.81571814  0.37340868  0.11923569     0.26100
C2714       C  0.78797135  0.36853651  0.11574757    -0.22100
C2715       C  0.77864690  0.35715473  0.09120565     0.21000
C2716       C  0.79682907  0.35014660  0.07064408     0.26000
C2717       C  0.82480424  0.35511402  0.07390443    -0.22000
C2718       C  0.83393741  0.36695561  0.09850435     0.20900
F2719       F  0.86053709  0.37267898  0.10235547    -0.12000
F2720       F  0.82507668  0.38509714  0.14250022    -0.14300
F2721       F  0.78703754  0.33747477  0.04810570    -0.14300
F2722       F  0.75186758  0.35220643  0.08738700    -0.12000
C2723       C  0.73209949  0.41755554  0.09186367     0.26100
C2724       C  0.75079279  0.41901418  0.11345357    -0.22100
C2725       C  0.77220171  0.43733848  0.11252340     0.21000
C2726       C  0.77536626  0.45374737  0.08993811     0.26000
C2727       C  0.75700111  0.45209894  0.06785418    -0.22000
C2728       C  0.73495834  0.43428053  0.06926977     0.20900
F2729       F  0.71685492  0.43223121  0.04841111    -0.12000
F2730       F  0.71195904  0.39900428  0.09204992    -0.14300
F2731       F  0.79639108  0.47133747  0.08982873    -0.14300
F2732       F  0.79054714  0.43870726  0.13325357    -0.12000
C2733       C  0.24611448  0.19073257  0.01668946     0.26100
C2734       C  0.23301866  0.16598854  0.01109909    -0.22100
C2735       C  0.20485212  0.16647507  0.00659459     0.21000
C2736       C  0.18980597  0.19092288  0.00894314     0.26000
C2737       C  0.20259613  0.21557912  0.01607755    -0.22000
C2738       C  0.23109416  0.21528167  0.01918729     0.20900
F2739       F  0.24449440  0.23887615  0.02397017    -0.12000
F2740       F  0.27343395  0.19101271  0.02012117    -0.14300
F2741       F  0.16258037  0.19027375  0.00486673    -0.14300
F2742       F  0.19189838  0.14315810  0.99973102    -0.12000
C2743       C  0.04736079  0.31004908  0.07099160     0.26100
C2744       C  0.07427264  0.30644281  0.08085504    -0.22100
C2745       C  0.07727828  0.29683390  0.10749244     0.21000
C2746       C  0.05495768  0.28642056  0.12121009     0.26000
C2747       C  0.02933266  0.28298976  0.10819487    -0.22000
C2748       C  0.02511443  0.29989811  0.08540502     0.20900
F2749       F  0.00032518  0.31049585  0.07957612    -0.12000
F2750       F  0.04241517  0.32453358  0.04804344    -0.14300
F2751       F  0.05802202  0.28207461  0.14813570    -0.14300
F2752       F  0.10160458  0.29724936  0.12055296    -0.12000
C2753       C  0.08474225  0.28801250  0.94090271     0.26100
C2754       C  0.07095309  0.26415512  0.94802869    -0.22100
C2755       C  0.07869577  0.25121652  0.97226902     0.21000
C2756       C  0.10014081  0.26123080  0.98846541     0.26000
C2757       C  0.11478980  0.28484937  0.98121544    -0.22000
C2758       C  0.10574940  0.29866119  0.95751757     0.20900
F2759       F  0.11607535  0.32313021  0.95077961    -0.12000
F2760       F  0.07770639  0.30119669  0.91767802    -0.14300
F2761       F  0.10615463  0.24793290  0.01189911    -0.14300
F2762       F  0.06616139  0.22803709  0.97983912    -0.12000
C2763       C  0.30249197  0.50758866  0.71274209     0.26100
C2764       C  0.33113416  0.50831237  0.71474218    -0.22100
C2765       C  0.34572400  0.50781497  0.69025578     0.21000
C2766       C  0.33209214  0.50677531  0.66486642     0.26000
C2767       C  0.30365371  0.50519765  0.66322857    -0.22000
C2768       C  0.28912114  0.50551311  0.68745771     0.20900
F2769       F  0.26166707  0.50468396  0.68656598    -0.12000
F2770       F  0.28712014  0.50985826  0.73522895    -0.14300
F2771       F  0.34664403  0.50752854  0.64177054    -0.14300
F2772       F  0.37321391  0.50768718  0.69080877    -0.12000
C2773       C  0.45399501  0.37973952  0.80470150     0.26100
C2774       C  0.48198984  0.38568465  0.80481932    -0.22100
C2775       C  0.48949860  0.41068224  0.81731008     0.21000
C2776       C  0.47013594  0.43111369  0.82246434     0.26000
C2777       C  0.44260609  0.42689956  0.81679941    -0.22000
C2778       C  0.43451099  0.40020598  0.80993921     0.20900
F2779       F  0.40795765  0.39393996  0.80700465    -0.12000
F2780       F  0.44529080  0.35410340  0.79911355    -0.14300
F2781       F  0.47842231  0.45520689  0.83328532    -0.14300
F2782       F  0.51493936  0.41576590  0.82598847    -0.12000
C2783       C  0.43827339  0.52602736  0.76388708     0.26100
C2784       C  0.42514987  0.53388635  0.78832021    -0.22100
C2785       C  0.44181926  0.54817653  0.80725810     0.21000
C2786       C  0.46898615  0.55576081  0.80123446     0.26000
C2787       C  0.48149635  0.54868540  0.77636125    -0.22000
C2788       C  0.46516854  0.53380914  0.75789250     0.20900
F2789       F  0.47478245  0.52814362  0.73281568    -0.12000
F2790       F  0.42547831  0.50975258  0.74563364    -0.14300
F2791       F  0.48269221  0.57145685  0.81941548    -0.14300
F2792       F  0.43200146  0.55468588  0.83205142    -0.12000
C2793       C  0.20008035  0.81103869  0.99842977     0.26100
C2794       C  0.17151413  0.80976805  0.99962941    -0.22100
C2795       C  0.15693881  0.83433805  0.00432024     0.21000
C2796       C  0.17042486  0.85923795  0.00783263     0.26000
C2797       C  0.19879421  0.86046626  0.00613086    -0.22000
C2798       C  0.21342570  0.83607159  0.00150283     0.20900
F2799       F  0.24091762  0.83637525  0.00137293    -0.12000
F2800       F  0.21534639  0.78791263  0.99585373    -0.14300
F2801       F  0.15568172  0.88198868  0.01378503    -0.14300
F2802       F  0.12950185  0.83434449  0.00559992    -0.12000
C2803       C  0.07149179  0.76135936  0.03319557     0.26100
C2804       C  0.08540798  0.73580741  0.03521971    -0.22100
C2805       C  0.07367863  0.71647061  0.05283208     0.21000
C2806       C  0.05149972  0.72334216  0.06966397     0.26000
C2807       C  0.03871960  0.74918826  0.06848530    -0.22000
C2808       C  0.04897482  0.76799325  0.04978276     0.20900
F2809       F  0.03728718  0.79317578  0.04767050    -0.12000
F2810       F  0.07851770  0.77968716  0.01418473    -0.14300
F2811       F  0.04257927  0.70456209  0.08743441    -0.14300
F2812       F  0.08342848  0.69043088  0.05370401    -0.12000
C2813       C  0.05018875  0.69053807  0.88508876     0.26100
C2814       C  0.04616123  0.71744691  0.87571467    -0.22100
C2815       C  0.05681894  0.73922816  0.89121244     0.21000
C2816       C  0.07014718  0.73427226  0.91570891     0.26000
C2817       C  0.07271459  0.70770052  0.92547635    -0.22000
C2818       C  0.06339120  0.68573715  0.90986349     0.20900
F2819       F  0.06633261  0.65981916  0.91916833    -0.12000
F2820       F  0.03979858  0.66907388  0.87102868    -0.14300
F2821       F  0.07982671  0.75557329  0.93051207    -0.14300
F2822       F  0.05104986  0.76551395  0.88526924    -0.12000
C2823       C  0.20586523  0.70513013  0.87197711     0.26100
C2824       C  0.23326145  0.70075040  0.87913673    -0.22100
C2825       C  0.25223649  0.72059169  0.87268882     0.21000
C2826       C  0.24471769  0.74313985  0.85714745     0.26000
C2827       C  0.21754378  0.74739382  0.84910836    -0.22000
C2828       C  0.19793203  0.72864828  0.85746764     0.20900
F2829       F  0.17145629  0.73228724  0.85034625    -0.12000
F2830       F  0.18715083  0.68603431  0.87767761    -0.14300
F2831       F  0.26419251  0.76093126  0.85002986    -0.14300
F2832       F  0.27845407  0.71770750  0.88091067    -0.12000
C2833       C  0.25394035  0.65969169  0.79912172     0.26100
C2834       C  0.27817120  0.67221491  0.79221629    -0.22100
C2835       C  0.29701556  0.67977386  0.81232269     0.21000
C2836       C  0.29184292  0.67449644  0.83931799     0.26000
C2837       C  0.26727920  0.66288831  0.84634096    -0.22000
C2838       C  0.24833978  0.65538101  0.82630457     0.20900
F2839       F  0.22481564  0.64343128  0.83326971    -0.12000
F2840       F  0.23586205  0.65188537  0.77967865    -0.14300
F2841       F  0.31075634  0.68045692  0.85858845    -0.14300
F2842       F  0.32087924  0.69123502  0.80560335    -0.12000
C2843       C  0.22213936  0.69433359  0.94869976     0.26100
C2844       C  0.21709424  0.67054174  0.93329808    -0.22100
C2845       C  0.19246408  0.65732447  0.93739787     0.21000
C2846       C  0.17268546  0.66859138  0.95478302     0.26000
C2847       C  0.17605844  0.69451253  0.96764703    -0.22000
C2848       C  0.20245877  0.70540816  0.96645276     0.20900
F2849       F  0.21013362  0.72552742  0.98375941    -0.12000
F2850       F  0.24654604  0.70658140  0.94706859    -0.14300
F2851       F  0.15065172  0.65325197  0.95974479    -0.14300
F2852       F  0.18710492  0.63370256  0.92394289    -0.12000
C2853       C  0.29653548  0.57556366  0.84497656     0.26100
C2854       C  0.32486371  0.57716136  0.84988035    -0.22100
C2855       C  0.33373573  0.59789207  0.86779468     0.21000
C2856       C  0.31496715  0.61570057  0.88091574     0.26000
C2857       C  0.28669648  0.61354836  0.87644939    -0.22000
C2858       C  0.27792586  0.59353033  0.85781135     0.20900
F2859       F  0.25117847  0.59169839  0.85145953    -0.12000
F2860       F  0.28673535  0.55679787  0.82715493    -0.14300
F2861       F  0.32450626  0.63532020  0.89794154    -0.14300
F2862       F  0.36059937  0.60046858  0.87319890    -0.12000
C2863       C  0.26489027  0.61539465  0.95468833     0.26100
C2864       C  0.25069483  0.61324543  0.93009826    -0.22100
C2865       C  0.23700198  0.58921046  0.92327537     0.21000
C2866       C  0.23749171  0.56730264  0.94114982     0.26000
C2867       C  0.25186019  0.56938993  0.96578824    -0.22000
C2868       C  0.26564543  0.59345284  0.97242206     0.20900
F2869       F  0.27989348  0.59563517  0.99602897    -0.12000
F2870       F  0.27868212  0.63840822  0.96105900    -0.14300
F2871       F  0.22507909  0.54371405  0.93392175    -0.14300
F2872       F  0.22334441  0.58698108  0.89931270    -0.12000
C2873       C  0.24537676  0.31873757  0.86584043     0.26100
C2874       C  0.27213685  0.32750126  0.86930924    -0.22100
C2875       C  0.29359486  0.30843193  0.86755298     0.21000
C2876       C  0.28851620  0.28129303  0.86031141     0.26000
C2877       C  0.26187647  0.27302271  0.85486254    -0.22000
C2878       C  0.24027256  0.29164899  0.85868228     0.20900
F2879       F  0.21433762  0.28399132  0.85362865    -0.12000
F2880       F  0.22442134  0.33695511  0.86701800    -0.14300
F2881       F  0.30970330  0.26385285  0.85605436    -0.14300
F2882       F  0.31952399  0.31653818  0.87156052    -0.12000
C2883       C  0.32860689  0.36391127  0.82058048     0.26100
C2884       C  0.30133688  0.36211028  0.82840592    -0.22100
C2885       C  0.28252091  0.35082321  0.81000734     0.21000
C2886       C  0.29086429  0.34004641  0.78511040     0.26000
C2887       C  0.31808527  0.34140325  0.77729325    -0.22000
C2888       C  0.33688567  0.35378261  0.79514078     0.20900
F2889       F  0.36346132  0.35479439  0.78854681    -0.12000
F2890       F  0.34727990  0.37491466  0.83774869    -0.14300
F2891       F  0.27214594  0.32844664  0.76840650    -0.14300
F2892       F  0.25573751  0.35093610  0.81583831    -0.12000
C2893       C  0.25788540  0.34126020  0.93347119     0.26100
C2894       C  0.25107412  0.36304909  0.91598529    -0.22100
C2895       C  0.22563601  0.37612764  0.91903506     0.21000
C2896       C  0.20713224  0.36699366  0.93826340     0.26000
C2897       C  0.21383867  0.34520798  0.95558423    -0.22000
C2898       C  0.23961587  0.33270562  0.95336624     0.20900
F2899       F  0.24686686  0.31191131  0.97014186    -0.12000
F2900       F  0.28238583  0.32850153  0.93150661    -0.14300
F2901       F  0.18258112  0.37963728  0.94027283    -0.14300
F2902       F  0.21831120  0.39734667  0.90282618    -0.12000
C2903       C  0.30452011  0.42771595  0.82528957     0.26100
C2904       C  0.30735194  0.42271918  0.85324998    -0.22100
C2905       C  0.32477733  0.43979889  0.86827608     0.21000
C2906       C  0.33876344  0.46100426  0.85571225     0.26000
C2907       C  0.33705051  0.46527614  0.82729677    -0.22000
C2908       C  0.32062639  0.44695868  0.81230800     0.20900
F2909       F  0.32239874  0.44457929  0.78514845    -0.12000
F2910       F  0.28662764  0.41331687  0.80999566    -0.14300
F2911       F  0.35603704  0.47595082  0.87127628    -0.14300
F2912       F  0.32987037  0.43505322  0.89491449    -0.12000
C2913       C  0.25733871  0.46095725  0.92849923     0.26100
C2914       C  0.26980735  0.45630694  0.95385505    -0.22100
C2915       C  0.28702999  0.43361838  0.95760355     0.21000
C2916       C  0.29072785  0.41493284  0.93660069     0.26000
C2917       C  0.27805377  0.41932165  0.91132636    -0.22000
C2918       C  0.26183552  0.44268011  0.90709794     0.20900
F2919       F  0.24954347  0.44707715  0.88269941    -0.12000
F2920       F  0.24107613  0.48322063  0.92449712    -0.14300
F2921       F  0.30654581  0.39239045  0.94091095    -0.14300
F2922       F  0.29944471  0.42907748  0.98193185    -0.12000
C2923       C  0.33921970  0.49381875  0.30682078     0.26100
C2924       C  0.33118105  0.48615259  0.28039280    -0.22100
C2925       C  0.30322970  0.48384618  0.27451053     0.21000
C2926       C  0.28406091  0.48762736  0.29479026     0.26000
C2927       C  0.29212344  0.49462077  0.32121256    -0.22000
C2928       C  0.31987811  0.49811631  0.32701049     0.20900
F2929       F  0.32837880  0.50495033  0.35236008    -0.12000
F2930       F  0.36586810  0.49635946  0.31332915    -0.14300
F2931       F  0.25736170  0.48472355  0.28863208    -0.14300
F2932       F  0.29421021  0.47871175  0.24896858    -0.12000
C2933       C  0.47379099  0.41063530  0.24484430     0.26100
C2934       C  0.48442059  0.38790006  0.23118544    -0.22100
C2935       C  0.48068880  0.38483121  0.20314335     0.21000
C2936       C  0.46597497  0.40455440  0.18875291     0.26000
C2937       C  0.45469097  0.42691434  0.20253737    -0.22000
C2938       C  0.45850299  0.42977110  0.23070637     0.20900
F2939       F  0.44624275  0.45033178  0.24469793    -0.12000
F2940       F  0.47750535  0.41374401  0.27202901    -0.14300
F2941       F  0.46209059  0.40166763  0.16162314    -0.14300
F2942       F  0.49016489  0.36226791  0.19006125    -0.12000
C2943       C  0.43690733  0.52075734  0.24784380     0.26100
C2944       C  0.42369090  0.52527224  0.22221756    -0.22100
C2945       C  0.43558598  0.54587079  0.20621315     0.21000
C2946       C  0.45809369  0.56167470  0.21566676     0.26000
C2947       C  0.47074118  0.55721745  0.24125348    -0.22000
C2948       C  0.45947904  0.53640292  0.25705733     0.20900
F2949       F  0.47067719  0.53065919  0.28166488    -0.12000
F2950       F  0.42905734  0.50018633  0.26404495    -0.14300
F2951       F  0.46765507  0.58153464  0.19948534    -0.14300
F2952       F  0.42569458  0.55059190  0.18087084    -0.12000
C2953       C  0.21405526  0.32036730  0.16337834     0.26100
C2954       C  0.24211564  0.31976242  0.15862038    -0.22100
C2955       C  0.25674113  0.29548992  0.16450515     0.21000
C2956       C  0.24367428  0.27253008  0.17490483     0.26000
C2957       C  0.21540779  0.27266681  0.17799280    -0.22000
C2958       C  0.20075288  0.29691106  0.17219492     0.20900
F2959       F  0.17343096  0.29787748  0.17509992    -0.12000
F2960       F  0.19953157  0.34381895  0.15989905    -0.14300
F2961       F  0.25843645  0.24954247  0.18031505    -0.14300
F2962       F  0.28358264  0.29365278  0.15924559    -0.12000
C2963       C  0.31320727  0.33590833  0.18895579     0.26100
C2964       C  0.28738317  0.34808147  0.18842446    -0.22100
C2965       C  0.26996630  0.34436212  0.21023272     0.21000
C2966       C  0.27700663  0.32616621  0.23091644     0.26000
C2967       C  0.30201058  0.31183620  0.23037345    -0.22000
C2968       C  0.32057824  0.31805246  0.20980409     0.20900
F2969       F  0.34576451  0.30652627  0.20939748    -0.12000
F2970       F  0.33032318  0.33922601  0.16796800    -0.14300
F2971       F  0.25900215  0.32219539  0.25100792    -0.14300
F2972       F  0.24530521  0.35703308  0.21046793    -0.12000
C2973       C  0.33191385  0.40393781  0.14632038     0.26100
C2974       C  0.30543824  0.40235283  0.15675949    -0.22100
C2975       C  0.29814362  0.42300736  0.17544671     0.21000
C2976       C  0.31652727  0.44375748  0.18388706     0.26000
C2977       C  0.34418943  0.44402149  0.17588446    -0.22000
C2978       C  0.35071228  0.42417640  0.15542513     0.20900
F2979       F  0.37463011  0.42512423  0.14238038    -0.12000
F2980       F  0.33978983  0.38581626  0.12693278    -0.14300
F2981       F  0.30646825  0.46447590  0.19916905    -0.14300
F2982       F  0.27256826  0.42364413  0.18517130    -0.12000
C2983       C  0.23856504  0.32701575  0.08484723     0.26100
C2984       C  0.23090590  0.34733993  0.10361047    -0.22100
C2985       C  0.20412954  0.35767736  0.10146705     0.21000
C2986       C  0.18530002  0.34693013  0.08229332     0.26000
C2987       C  0.19221190  0.32481604  0.06469620    -0.22000
C2988       C  0.22004195  0.31676754  0.06522012     0.20900
F2989       F  0.23023484  0.30040481  0.04550254    -0.12000
F2990       F  0.26454255  0.31753358  0.08491629    -0.14300
F2991       F  0.16083950  0.35971745  0.07993820    -0.14300
F2992       F  0.19604969  0.37854076  0.11782563    -0.12000
C2993       C  0.28467695  0.40161225  0.08220022     0.26100
C2994       C  0.26684716  0.40087341  0.10401483    -0.22100
C2995       C  0.24723414  0.42148570  0.10739644     0.21000
C2996       C  0.24516558  0.44274314  0.08893633     0.26000
C2997       C  0.26307420  0.44381805  0.06720316    -0.22000
C2998       C  0.28302352  0.42328791  0.06395146     0.20900
F2999       F  0.30047658  0.42403605  0.04294969    -0.12000
F3000       F  0.30348340  0.38142354  0.07861864    -0.14300
F3001       F  0.22641045  0.46289965  0.09287545    -0.14300
F3002       F  0.23050171  0.42127558  0.12898497    -0.12000
C3003       C  0.20867871  0.69722850  0.18121309     0.26100
C3004       C  0.23295167  0.68648409  0.17097984    -0.22100
C3005       C  0.25522824  0.70356896  0.16774594     0.21000
C3006       C  0.25322707  0.73122722  0.17424989     0.26000
C3007       C  0.22908446  0.74208057  0.18476870    -0.22000
C3008       C  0.20680601  0.72489672  0.18839389     0.20900
F3009       F  0.18296006  0.73512781  0.19773778    -0.12000
F3010       F  0.18697281  0.68089419  0.18425455    -0.14300
F3011       F  0.27487821  0.74745676  0.17029459    -0.14300
F3012       F  0.27877746  0.69340423  0.15769564    -0.12000
C3013       C  0.30949141  0.65326911  0.22714161     0.26100
C3014       C  0.29502634  0.65509837  0.25139742    -0.22100
C3015       C  0.26664142  0.65534585  0.25083929     0.21000
C3016       C  0.25288569  0.65134905  0.22633337     0.26000
C3017       C  0.26752625  0.64730685  0.20245251    -0.22000
C3018       C  0.29576880  0.64935177  0.20272933     0.20900
F3019       F  0.31003685  0.64702871  0.17949915    -0.12000
F3020       F  0.33699047  0.65417532  0.22732878    -0.14300
F3021       F  0.22545356  0.64958297  0.22613027    -0.14300
F3022       F  0.25243541  0.65703669  0.27414461    -0.12000
C3023       C  0.22085065  0.67898840  0.10486942     0.26100
C3024       C  0.21069562  0.65793869  0.12075175    -0.22100
C3025       C  0.18454470  0.64810982  0.11595243     0.21000
C3026       C  0.16851874  0.65935206  0.09530727     0.26000
C3027       C  0.17886081  0.68001436  0.07913089    -0.22000
C3028       C  0.20500812  0.68984913  0.08395251     0.20900
F3029       F  0.21519760  0.70961657  0.06801728    -0.12000
F3030       F  0.24643284  0.68812814  0.10881819    -0.14300
F3031       F  0.14349223  0.64927980  0.09013136    -0.14300
F3032       F  0.17483163  0.62738677  0.13097959    -0.12000
C3033       C  0.32064909  0.57543909  0.15218289     0.26100
C3034       C  0.31972404  0.55748089  0.17403915    -0.22100
C3035       C  0.29827595  0.55921542  0.19233613     0.21000
C3036       C  0.27751412  0.57858294  0.18848388     0.26000
C3037       C  0.27804114  0.59616163  0.16618352    -0.22000
C3038       C  0.29992075  0.59472717  0.14823839     0.20900
F3039       F  0.30179528  0.61273580  0.12760175    -0.12000
F3040       F  0.34165973  0.57416440  0.13474942    -0.14300
F3041       F  0.25686279  0.58012586  0.20632777    -0.14300
F3042       F  0.29772266  0.54224354  0.21395045    -0.12000
C3043       C  0.25261319  0.60666317  0.09267480     0.26100
C3044       C  0.23902836  0.60066412  0.11661792    -0.22100
C3045       C  0.22749555  0.57487638  0.11986730     0.21000
C3046       C  0.22999597  0.55499828  0.09953542     0.26000
C3047       C  0.24477062  0.56057884  0.07618729    -0.22000
C3048       C  0.25591527  0.58654271  0.07281567     0.20900
F3049       F  0.27028154  0.59227772  0.05037412    -0.12000
F3050       F  0.26411514  0.63140552  0.08926551    -0.14300
F3051       F  0.21932459  0.52992119  0.10325922    -0.14300
F3052       F  0.21441042  0.56883627  0.14303624    -0.12000
C3053       C  0.00246066  0.16989826  0.19852977     0.26100
C3054       C  0.00379586  0.18231907  0.22449415    -0.22100
C3055       C  0.00295120  0.21124200  0.22549895     0.21000
C3056       C  0.99929439  0.22691842  0.20181460     0.26000
C3057       C  0.99785832  0.21457372  0.17598654    -0.22000
C3058       C  0.99988003  0.18581696  0.17463138     0.20900
F3059       F  0.99916585  0.17311126  0.15013451    -0.12000
F3060       F  0.00279948  0.14226483  0.19628118    -0.14300
F3061       F  0.99874470  0.25457358  0.20398067    -0.14300
F3062       F  0.00658523  0.22462840  0.24941489    -0.12000
C3063       C  0.05807122  0.07255056  0.30438991     0.26100
C3064       C  0.03558119  0.08535614  0.29106798    -0.22100
C3065       C  0.02304004  0.06889798  0.27047153     0.21000
C3066       C  0.03269966  0.04215605  0.26319106     0.26000
C3067       C  0.05528089  0.02960296  0.27617326    -0.22000
C3068       C  0.06782680  0.04573827  0.29686927     0.20900
F3069       F  0.09015282  0.03556925  0.30986479    -0.12000
F3070       F  0.07052099  0.08563344  0.32530529    -0.14300
F3071       F  0.02004409  0.02862885  0.24265798    -0.14300
F3072       F  0.00017338  0.07827094  0.25784733    -0.12000
C3073       C  0.89162326  0.04335910  0.33486114     0.26100
C3074       C  0.89473066  0.02245035  0.31546888    -0.22100
C3075       C  0.91972889  0.01925380  0.30255877     0.21000
C3076       C  0.94042591  0.03768630  0.30719537     0.26000
C3077       C  0.93736488  0.05934840  0.32602158    -0.22000
C3078       C  0.91291821  0.06136161  0.34049312     0.20900
F3079       F  0.90925701  0.08119912  0.35947549    -0.12000
F3080       F  0.86759745  0.04699039  0.34754128    -0.14300
F3081       F  0.96217312  0.03567720  0.29077953    -0.14300
F3082       F  0.92299255  0.00075692  0.28228768    -0.12000
C3083       C  0.71869134  0.29068221  0.53143087     0.26100
C3084       C  0.72703183  0.30846439  0.51106583    -0.22100
C3085       C  0.70849687  0.31593062  0.49051674     0.21000
C3086       C  0.68189705  0.30625682  0.49049929     0.26000
C3087       C  0.67334359  0.28807946  0.51070274    -0.22000
C3088       C  0.69219204  0.28041550  0.53114465     0.20900
F3089       F  0.68472561  0.26320252  0.55105107    -0.12000
F3090       F  0.73625377  0.28329795  0.55155794    -0.14300
F3091       F  0.66395808  0.31682486  0.47226214    -0.14300
F3092       F  0.71603471  0.33339945  0.47085026    -0.12000
C3093       C  0.83039170  0.42615410  0.41362026     0.26100
C3094       C  0.81426846  0.42260593  0.43666395    -0.22100
C3095       C  0.79138731  0.43995402  0.43986480     0.21000
C3096       C  0.78468695  0.45987431  0.42064342     0.26000
C3097       C  0.79956943  0.46217402  0.39677229    -0.22000
C3098       C  0.82291694  0.44555786  0.39368832     0.20900
F3099       F  0.83784153  0.44736918  0.37090487    -0.12000
F3100       F  0.85319499  0.41073528  0.41032308    -0.14300
F3101       F  0.76217835  0.47563035  0.42438916    -0.14300
F3102       F  0.77424213  0.43653526  0.46078448    -0.12000
C3103       C  0.77336802  0.40987676  0.53456019     0.26100
C3104       C  0.79817233  0.39615951  0.54159129    -0.22100
C3105       C  0.81461731  0.40981034  0.56113498     0.21000
C3106       C  0.80590570  0.43453641  0.57404231     0.26000
C3107       C  0.78070957  0.44724881  0.56762739    -0.22000
C3108       C  0.76464350  0.43428327  0.54772184     0.20900
F3109       F  0.74010175  0.44530429  0.54091987    -0.12000
F3110       F  0.75768698  0.40033898  0.51388541    -0.14300
F3111       F  0.82232808  0.44613119  0.59301970    -0.14300
F3112       F  0.83983496  0.40007583  0.56709528    -0.12000
C3113       C  0.04869137  0.18052134  0.86329459     0.26100
C3114       C  0.04370464  0.20861258  0.86621604    -0.22100
C3115       C  0.03520448  0.22378145  0.84347599     0.21000
C3116       C  0.03133352  0.21097227  0.81821188     0.26000
C3117       C  0.03619368  0.18269468  0.81516062    -0.22000
C3118       C  0.04511577  0.16765900  0.83802161     0.20900
F3119       F  0.04917923  0.14024069  0.83620165    -0.12000
F3120       F  0.05614281  0.16544263  0.88520310    -0.14300
F3121       F  0.02303378  0.22624021  0.79670419    -0.14300
F3122       F  0.02989852  0.25095192  0.84606419    -0.12000
C3123       C  0.10543016  0.06586394  0.72862880     0.26100
C3124       C  0.10712663  0.05551015  0.75498589    -0.22100
C3125       C  0.08882039  0.06529744  0.77434640     0.21000
C3126       C  0.06961592  0.08565026  0.76771725     0.26000
C3127       C  0.06853830  0.09749888  0.74155794    -0.22000
C3128       C  0.08622248  0.08629330  0.72180822     0.20900
F3129       F  0.08397763  0.09347471  0.69539568    -0.12000
F3130       F  0.12215853  0.05578974  0.70926220    -0.14300
F3131       F  0.05091204  0.09246924  0.78659196    -0.14300
F3132       F  0.08900898  0.05454336  0.79963485    -0.12000
C3133       C  0.96337920  0.01478388  0.77707115     0.26100
C3134       C  0.94005471  0.00685682  0.76292595    -0.22100
C3135       C  0.93088537  0.02171739  0.74029179     0.21000
C3136       C  0.94527913  0.04428955  0.73160191     0.26000
C3137       C  0.96862384  0.05244246  0.74586981    -0.22000
C3138       C  0.97747538  0.03758363  0.76878436     0.20900
F3139       F  0.99892465  0.04602351  0.78401577    -0.12000
F3140       F  0.97163872  0.00125650  0.79973341    -0.14300
F3141       F  0.93643140  0.05824095  0.70942775    -0.14300
F3142       F  0.90732364  0.01510172  0.72748970    -0.12000
C3143       C  0.89331958  0.24009327  0.73547004     0.26100
C3144       C  0.88343661  0.22209437  0.71565070    -0.22100
C3145       C  0.86786034  0.19983472  0.72342566     0.21000
C3146       C  0.86258740  0.19531800  0.75091036     0.26000
C3147       C  0.87315666  0.21292606  0.77105368    -0.22000
C3148       C  0.88844423  0.23555647  0.76287488     0.20900
F3149       F  0.89847010  0.25361941  0.78132939    -0.12000
F3150       F  0.90771956  0.26219816  0.72815546    -0.14300
F3151       F  0.84778598  0.17334422  0.75780920    -0.14300
F3152       F  0.85793847  0.18244394  0.70434405    -0.12000
C3153       C  0.82733694  0.23963345  0.65857215     0.26100
C3154       C  0.84766158  0.25219652  0.67415214    -0.22100
C3155       C  0.84141511  0.27445681  0.69101024     0.21000
C3156       C  0.81488440  0.28455589  0.69168129     0.26000
C3157       C  0.79493584  0.27284376  0.67487539    -0.22000
C3158       C  0.80107365  0.25010630  0.65873207     0.20900
F3159       F  0.78156610  0.23803693  0.64333058    -0.12000
F3160       F  0.83317159  0.21755693  0.64277988    -0.14300
F3161       F  0.80885614  0.30638695  0.70775448    -0.14300
F3162       F  0.86106959  0.28709638  0.70569761    -0.12000
C3163       C  0.97333020  0.19465628  0.71680735     0.26100
C3164       C  0.97453956  0.16597882  0.71235289    -0.22100
C3165       C  0.95607211  0.15537086  0.69271430     0.21000
C3166       C  0.93560804  0.17191577  0.68083112     0.26000
C3167       C  0.93366403  0.19989438  0.68698088    -0.22000
C3168       C  0.95301232  0.21110921  0.70467862     0.20900
F3169       F  0.95329034  0.23849453  0.70899678    -0.12000
F3170       F  0.99333768  0.20760268  0.73056784    -0.14300
F3171       F  0.91809950  0.16064219  0.66263685    -0.14300
F3172       F  0.95879696  0.12937094  0.68335940    -0.12000
C3173       C  0.87103718  0.25252508  0.59758656     0.26100
C3174       C  0.88054818  0.26362750  0.62226245    -0.22100
C3175       C  0.88168754  0.29231280  0.62451459     0.21000
C3176       C  0.87312167  0.30941238  0.60291876     0.26000
C3177       C  0.86251265  0.29842607  0.57844455    -0.22000
C3178       C  0.86188270  0.26953642  0.57616085     0.20900
F3179       F  0.85151726  0.25747840  0.55355929    -0.12000
F3180       F  0.86987644  0.22500536  0.59443267    -0.14300
F3181       F  0.87596452  0.33681766  0.60574027    -0.14300
F3182       F  0.89171463  0.30386096  0.64756857    -0.12000
C3183       C  0.94916433  0.25238777  0.62824188     0.26100
C3184       C  0.93357838  0.22885003  0.62968194    -0.22100
C3185       C  0.93502130  0.20877597  0.60944652     0.21000
C3186       C  0.95129848  0.21283286  0.58708285     0.26000
C3187       C  0.96534574  0.23743879  0.58456581    -0.22000
C3188       C  0.96475684  0.25688386  0.60559878     0.20900
F3189       F  0.97896161  0.28033703  0.60411038    -0.12000
F3190       F  0.94779324  0.27178055  0.64802121    -0.14300
F3191       F  0.95204438  0.19355033  0.56718283    -0.14300
F3192       F  0.91929250  0.18629925  0.61044074    -0.12000
C3193       C  0.86547425  0.24902391  0.31461211     0.26100
C3194       C  0.86725618  0.22735357  0.33323733    -0.22100
C3195       C  0.85554582  0.20224282  0.32619597     0.21000
C3196       C  0.84016078  0.19971798  0.30212015     0.26000
C3197       C  0.83694612  0.22202089  0.28444929    -0.22000
C3198       C  0.85086344  0.24623689  0.29026105     0.20900
F3199       F  0.84918662  0.26770575  0.27299626    -0.12000
F3200       F  0.87743015  0.27320274  0.32048735    -0.14300
F3201       F  0.82827741  0.17556080  0.29606792    -0.14300
F3202       F  0.85752518  0.18079873  0.34343202    -0.12000
C3203       C  0.79450671  0.25326781  0.34421165     0.26100
C3204       C  0.79400126  0.28081410  0.33651293    -0.22100
C3205       C  0.81374664  0.29873065  0.34658267     0.21000
C3206       C  0.83483923  0.28870185  0.36280352     0.26000
C3207       C  0.83578342  0.26098680  0.36943981    -0.22000
C3208       C  0.81489271  0.24364200  0.36124846     0.20900
F3209       F  0.81525276  0.21699306  0.36874060    -0.12000
F3210       F  0.77450794  0.23601556  0.33634946    -0.14300
F3211       F  0.85515497  0.30545274  0.37076363    -0.14300
F3212       F  0.81267341  0.32570509  0.34046496    -0.12000
C3213       C  0.93833296  0.18816288  0.37679411     0.26100
C3214       C  0.92318335  0.20799897  0.36201071    -0.22100
C3215       C  0.92831855  0.20891737  0.33387263     0.21000
C3216       C  0.94439876  0.18904584  0.32077014     0.26000
C3217       C  0.96177548  0.17121558  0.33541562    -0.22000
C3218       C  0.95807526  0.17110689  0.36399061     0.20900
F3219       F  0.97272617  0.15337312  0.37958173    -0.12000
F3220       F  0.93361009  0.18444158  0.40350596    -0.14300
F3221       F  0.94018061  0.18584279  0.29384304    -0.14300
F3222       F  0.91847919  0.22957679  0.31841940    -0.12000
C3223       C  0.86618630  0.30965826  0.45922415     0.26100
C3224       C  0.83799577  0.31014961  0.46497117    -0.22100
C3225       C  0.82221063  0.29214828  0.44879801     0.21000
C3226       C  0.83408756  0.27214668  0.43155179     0.26000
C3227       C  0.86205563  0.27187414  0.42540559    -0.22000
C3228       C  0.87777785  0.29153557  0.43954861     0.20900
F3229       F  0.90434815  0.29420536  0.43367796    -0.12000
F3230       F  0.88266387  0.32778941  0.47191968    -0.14300
F3231       F  0.81756037  0.25302491  0.42059049    -0.14300
F3232       F  0.79511562  0.29568975  0.44648668    -0.12000
C3233       C  0.94487278  0.24637762  0.41756874     0.26100
C3234       C  0.91853379  0.23751609  0.42237491    -0.22100
C3235       C  0.91098584  0.22971269  0.44854359     0.21000
C3236       C  0.92976132  0.23080651  0.46980651     0.26000
C3237       C  0.95604327  0.23953125  0.46484616    -0.22000
C3238       C  0.96356978  0.24747083  0.43883144     0.20900
F3239       F  0.98871467  0.25726997  0.43436775    -0.12000
F3240       F  0.95193507  0.25543467  0.39273276    -0.14300
F3241       F  0.92209324  0.22450871  0.49531021    -0.14300
F3242       F  0.88534437  0.22162177  0.45353238    -0.12000
C3243       C  0.31746276  0.29045770  0.49628235     0.26100
C3244       C  0.34352690  0.29995857  0.50209462    -0.22100
C3245       C  0.34686920  0.32777550  0.50822185     0.21000
C3246       C  0.32469187  0.34615405  0.50675088     0.26000
C3247       C  0.29842859  0.33687772  0.49999369    -0.22000
C3248       C  0.29509811  0.30841418  0.49595753     0.20900
F3249       F  0.27019776  0.29754781  0.49227411    -0.12000
F3250       F  0.31370725  0.26349800  0.49110970    -0.14300
F3251       F  0.32923608  0.37313550  0.51085744    -0.14300
F3252       F  0.37192250  0.33733072  0.51425319    -0.12000
C3253       C  0.23210546  0.44206979  0.43350651     0.26100
C3254       C  0.20441802  0.44652228  0.43824086    -0.22100
C3255       C  0.18799070  0.45934758  0.41870731     0.21000
C3256       C  0.19969253  0.46984308  0.39551550     0.26000
C3257       C  0.22772398  0.46702069  0.39175341    -0.22000
C3258       C  0.24374486  0.45235714  0.41049220     0.20900
F3259       F  0.27108356  0.45083419  0.40840178    -0.12000
F3260       F  0.24798796  0.42825462  0.45162557    -0.14300
F3261       F  0.18404590  0.48380580  0.37732196    -0.14300
F3262       F  0.16093323  0.46216124  0.42251928    -0.12000
C3263       C  0.22105611  0.44190702  0.56249426     0.26100
C3264       C  0.23686271  0.43124792  0.54081373    -0.22100
C3265       C  0.26110773  0.44570937  0.53582225     0.21000
C3266       C  0.26982679  0.46792293  0.55259677     0.26000
C3267       C  0.25502556  0.47696015  0.57541860    -0.22000
C3268       C  0.23028002  0.46351195  0.57975119     0.20900
F3269       F  0.21481657  0.47123248  0.60107976    -0.12000
F3270       F  0.19629759  0.43139796  0.56721834    -0.14300
F3271       F  0.29335897  0.48031621  0.54661453    -0.14300
F3272       F  0.27633580  0.43911765  0.51403054    -0.12000
C3273       C  0.16734907  0.21213518  0.31619093     0.26100
C3274       C  0.16157241  0.22375074  0.29067265    -0.22100
C3275       C  0.15069206  0.25043083  0.28956486     0.21000
C3276       C  0.14463650  0.26473596  0.31359622     0.26000
C3277       C  0.15017756  0.25293873  0.33904894    -0.22000
C3278       C  0.16198586  0.22668048  0.34009805     0.20900
F3279       F  0.16792332  0.21493037  0.36434820    -0.12000
F3280       F  0.17806256  0.18647378  0.31793189    -0.14300
F3281       F  0.13263015  0.28980647  0.31205442    -0.14300
F3282       F  0.14457758  0.26202925  0.26528976    -0.12000
C3283       C  0.21668934  0.28676425  0.33315389     0.26100
C3284       C  0.23292846  0.26589447  0.34439554    -0.22100
C3285       C  0.22688885  0.25538813  0.37001897     0.21000
C3286       C  0.20425133  0.26486018  0.38373701     0.26000
C3287       C  0.18718147  0.28451203  0.37172907    -0.22000
C3288       C  0.19405977  0.29619004  0.34694525     0.20900
F3289       F  0.17757736  0.31541506  0.33543723    -0.12000
F3290       F  0.22358243  0.29906069  0.30969988    -0.14300
F3291       F  0.19765176  0.25334453  0.40766457    -0.14300
F3292       F  0.24355998  0.23660034  0.38206274    -0.12000
C3293       C  0.16513720  0.33322911  0.47172360     0.26100
C3294       C  0.18953520  0.34688349  0.46622714    -0.22100
C3295       C  0.19777973  0.34488263  0.43886119     0.21000
C3296       C  0.18380693  0.32876694  0.41909532     0.26000
C3297       C  0.16173534  0.31141651  0.42545175    -0.22000
C3298       C  0.15230491  0.31542378  0.45257449     0.20900
F3299       F  0.12941484  0.30392524  0.46115455    -0.12000
F3300       F  0.15213927  0.33836327  0.49527691    -0.14300
F3301       F  0.19057931  0.33306907  0.39305771    -0.14300
F3302       F  0.21840847  0.36050503  0.43023894    -0.12000
C3303       C  0.08840227  0.18999527  0.37125718     0.26100
C3304       C  0.07121147  0.19374210  0.34853435    -0.22100
C3305       C  0.06924494  0.22027052  0.33750020     0.21000
C3306       C  0.08437917  0.24211344  0.34850656     0.26000
C3307       C  0.10137506  0.23852774  0.37149727    -0.22000
C3308       C  0.10326391  0.21197155  0.38256406     0.20900
F3309       F  0.12023529  0.20692004  0.40381456    -0.12000
F3310       F  0.09020843  0.16504623  0.38299684    -0.14300
F3311       F  0.08261835  0.26693794  0.33645510    -0.14300
F3312       F  0.05250190  0.22505518  0.31593811    -0.12000
C3313       C  0.06150531  0.28610846  0.44442581     0.26100
C3314       C  0.06529463  0.26576562  0.46408623    -0.22100
C3315       C  0.08932768  0.24992452  0.46471771     0.21000
C3316       C  0.10897128  0.25384887  0.44539255     0.26000
C3317       C  0.10484686  0.27373551  0.42551049    -0.22000
C3318       C  0.08127284  0.28999095  0.42506600     0.20900
F3319       F  0.07744828  0.30939475  0.40579734    -0.12000
F3320       F  0.03841271  0.30152143  0.44344697    -0.14300
F3321       F  0.13234075  0.23886824  0.44646171    -0.14300
F3322       F  0.09406205  0.23106604  0.48437087    -0.12000
C3323       C  0.15278611  0.22793774  0.71034926     0.26100
C3324       C  0.14806988  0.25601821  0.70691604    -0.22100
C3325       C  0.15182753  0.27421125  0.72859580     0.21000
C3326       C  0.16283491  0.26476528  0.75285476     0.26000
C3327       C  0.16922449  0.23695540  0.75559191    -0.22000
C3328       C  0.16290142  0.21835187  0.73489835     0.20900
F3329       F  0.17013188  0.19155769  0.73712707    -0.12000
F3330       F  0.15118626  0.21038570  0.68907027    -0.14300
F3331       F  0.16945058  0.28289304  0.77273993    -0.14300
F3332       F  0.14708964  0.30138129  0.72525618    -0.12000
C3333       C  0.20013918  0.31259961  0.67570278     0.26100
C3334       C  0.18934835  0.28626846  0.67422981    -0.22100
C3335       C  0.20669821  0.26328580  0.67561169     0.21000
C3336       C  0.23452510  0.26660646  0.67865905     0.26000
C3337       C  0.24528465  0.29287323  0.67934489    -0.22000
C3338       C  0.22808757  0.31589426  0.67808378     0.20900
F3339       F  0.23839329  0.34144037  0.67949989    -0.12000
F3340       F  0.18362503  0.33499284  0.67428459    -0.14300
F3341       F  0.25109632  0.24424081  0.67998109    -0.14300
F3342       F  0.19696770  0.23774142  0.67195672    -0.12000
C3343       C  0.08268906  0.24179329  0.68760890     0.26100
C3344       C  0.10274985  0.24043991  0.66791785    -0.22100
C3345       C  0.10690803  0.21624888  0.65292978     0.21000
C3346       C  0.09200457  0.19310341  0.65861768     0.26000
C3347       C  0.07203271  0.19436077  0.67839745    -0.22000
C3348       C  0.06722119  0.21886807  0.69272223     0.20900
F3349       F  0.04831975  0.22014536  0.71241347    -0.12000
F3350       F  0.07841096  0.26512342  0.70205021    -0.14300
F3351       F  0.09724787  0.16934872  0.64521729    -0.14300
F3352       F  0.12671518  0.21455891  0.63415234    -0.12000
C3353       C  0.16601433  0.34511580  0.59422185     0.26100
C3354       C  0.18947331  0.33440422  0.58227838    -0.22100
C3355       C  0.19989741  0.30886767  0.58997682     0.21000
C3356       C  0.18635613  0.29365319  0.60911771     0.26000
C3357       C  0.16271734  0.30435275  0.62097861    -0.22000
C3358       C  0.15267060  0.33014747  0.61360678     0.20900
F3359       F  0.13016848  0.34084691  0.62540154    -0.12000
F3360       F  0.15571545  0.36971451  0.58633274    -0.14300
F3361       F  0.19583542  0.26831425  0.61557795    -0.14300
F3362       F  0.22296733  0.29879981  0.57877772    -0.12000
C3363       C  0.11480457  0.26335453  0.59357876     0.26100
C3364       C  0.10625684  0.27581476  0.61773338    -0.22100
C3365       C  0.07918790  0.28393970  0.62094836     0.21000
C3366       C  0.06065097  0.27960869  0.60011204     0.26000
C3367       C  0.06902273  0.26674123  0.57616798    -0.22000
C3368       C  0.09612232  0.25880391  0.57274167     0.20900
F3369       F  0.10432475  0.24660573  0.54940012    -0.12000
F3370       F  0.14067265  0.25405403  0.59090325    -0.14300
F3371       F  0.03427121  0.28676887  0.60374103    -0.14300
F3372       F  0.07061954  0.29526735  0.64458680    -0.12000
C3373       C  0.13524665  0.98940307  0.19593381     0.26100
C3374       C  0.13226578  0.98735064  0.22418879    -0.22100
C3375       C  0.15578339  0.98407178  0.24036589     0.21000
C3376       C  0.18166317  0.98305161  0.22874495     0.26000
C3377       C  0.18477595  0.98451574  0.20046777    -0.22000
C3378       C  0.16120039  0.98773243  0.18416178     0.20900
F3379       F  0.16340350  0.99007214  0.15689912    -0.12000
F3380       F  0.11302543  0.99306753  0.17979447    -0.14300
F3381       F  0.20378251  0.98007015  0.24515629    -0.14300
F3382       F  0.15361618  0.98199122  0.26763402    -0.12000
C3383       C  0.29172463  0.07677642  0.05459680     0.26100
C3384       C  0.26796027  0.07462269  0.03872860    -0.22100
C3385       C  0.24814493  0.05592472  0.04623185     0.21000
C3386       C  0.25216964  0.03948937  0.06908067     0.26000
C3387       C  0.27584550  0.04186764  0.08511798    -0.22000
C3388       C  0.29554245  0.06067034  0.07774115     0.20900
F3389       F  0.31841926  0.06341826  0.09302144    -0.12000
F3390       F  0.31040494  0.09582228  0.04862977    -0.14300
F3391       F  0.23246328  0.02200354  0.07628479    -0.14300
F3392       F  0.22439202  0.05446460  0.03212727    -0.12000
C3393       C  0.27444343  0.91519058  0.07816982     0.26100
C3394       C  0.25161943  0.92447907  0.06345311    -0.22100
C3395       C  0.23295630  0.94154046  0.07663693     0.21000
C3396       C  0.23689391  0.94943494  0.10370098     0.26000
C3397       C  0.26036821  0.94113852  0.11883463    -0.22000
C3398       C  0.27934771  0.92419940  0.10495715     0.20900
F3399       F  0.30377954  0.91784703  0.11616552    -0.12000
F3400       F  0.29231915  0.89754947  0.06650638    -0.14300
F3401       F  0.21938280  0.96855111  0.11342577    -0.14300
F3402       F  0.21060129  0.95086303  0.06302557    -0.12000
C3403       C  0.52967284  0.68546163  0.29287785     0.26100
C3404       C  0.52603924  0.68602066  0.32111315    -0.22100
C3405       C  0.51791435  0.66195642  0.33394601     0.21000
C3406       C  0.51329643  0.63793187  0.31882217     0.26000
C3407       C  0.51626468  0.63760970  0.29047542    -0.22000
C3408       C  0.52498854  0.66149911  0.27777408     0.20900
F3409       F  0.52879388  0.66157673  0.25060142    -0.12000
F3410       F  0.53766199  0.70828950  0.27994667    -0.14300
F3411       F  0.50641312  0.61485816  0.33193297    -0.14300
F3412       F  0.51339578  0.66208304  0.36100568    -0.12000
C3413       C  0.47268082  0.73838577  0.45923782     0.26100
C3414       C  0.46857138  0.76555486  0.45080500    -0.22100
C3415       C  0.45230518  0.78316424  0.46639301     0.21000
C3416       C  0.43952169  0.77335498  0.48958731     0.26000
C3417       C  0.44342764  0.74599600  0.49765877    -0.22000
C3418       C  0.46056999  0.72885653  0.48258503     0.20900
F3419       F  0.46452679  0.70237872  0.48981467    -0.12000
F3420       F  0.48833793  0.72094313  0.44449955    -0.14300
F3421       F  0.42213052  0.79002295  0.50321644    -0.14300
F3422       F  0.44892658  0.80970452  0.45915584    -0.12000
C3423       C  0.56229635  0.72869041  0.42488036     0.26100
C3424       C  0.56644804  0.75433485  0.41205755    -0.22100
C3425       C  0.58395430  0.77232229  0.42655889     0.21000
C3426       C  0.59771516  0.76441064  0.45103587     0.26000
C3427       C  0.59418403  0.73843639  0.46276163    -0.22000
C3428       C  0.57617808  0.72086526  0.44907215     0.20900
F3429       F  0.57171883  0.69572031  0.45941048    -0.12000
F3430       F  0.54319744  0.71145547  0.41515315    -0.14300
F3431       F  0.61504845  0.78218339  0.46305934    -0.14300
F3432       F  0.58713878  0.79821863  0.41775032    -0.12000
C3433       C  0.80723662  0.01688333  0.20479813     0.26100
C3434       C  0.78007463  0.00986663  0.20868619    -0.22100
C3435       C  0.77194126  0.00273803  0.23503704     0.21000
C3436       C  0.79097593  0.99979374  0.25611512     0.26000
C3437       C  0.81830342  0.00508268  0.25181611    -0.22000
C3438       C  0.82602114  0.01534371  0.22641250     0.20900
F3439       F  0.85198426  0.02263078  0.22205058    -0.12000
F3440       F  0.81590937  0.02372514  0.17980044    -0.14300
F3441       F  0.78277700  0.99183007  0.28093103    -0.14300
F3442       F  0.74547613  0.99848726  0.24043768    -0.12000
C3443       C  0.75599053  0.04815519  0.09808826     0.26100
C3444       C  0.72877707  0.05082318  0.10704056    -0.22100
C3445       C  0.71176838  0.06875926  0.09161491     0.21000
C3446       C  0.72190870  0.08446490  0.06994410     0.26000
C3447       C  0.74929105  0.08256133  0.06228436    -0.22000
C3448       C  0.76605939  0.06410705  0.07674246     0.20900
F3449       F  0.79253206  0.06131508  0.07001213    -0.12000
F3450       F  0.77284934  0.02885892  0.10886602    -0.14300
F3451       F  0.70480955  0.10172919  0.05642139    -0.14300
F3452       F  0.68486766  0.07045574  0.09668038    -0.12000
C3453       C  0.72037546  0.91365516  0.03111090     0.26100
C3454       C  0.74367615  0.92227712  0.01774267    -0.22100
C3455       C  0.75592909  0.94666945  0.02536809     0.21000
C3456       C  0.74599532  0.96169464  0.04717592     0.26000
C3457       C  0.72285761  0.95298116  0.06110894    -0.22000
C3458       C  0.70988336  0.92903305  0.05256195     0.20900
F3459       F  0.68743949  0.92029772  0.06529736    -0.12000
F3460       F  0.70875912  0.88953123  0.02430982    -0.14300
F3461       F  0.76029493  0.98364159  0.05578903    -0.14300
F3462       F  0.77886708  0.95474288  0.01305177    -0.12000
C3463       C  0.74897407  0.85945312  0.24128647     0.26100
C3464       C  0.75040368  0.84022229  0.22008373    -0.22100
C3465       C  0.72797373  0.83725806  0.20236679     0.21000
C3466       C  0.70390686  0.85182747  0.20700650     0.26000
C3467       C  0.70191345  0.86950834  0.22933216    -0.22000
C3468       C  0.72472771  0.87368567  0.24607387     0.20900
F3469       F  0.72267976  0.88988949  0.26838684    -0.12000
F3470       F  0.77041211  0.86312072  0.25840523    -0.14300
F3471       F  0.68188334  0.84712522  0.19098522    -0.14300
F3472       F  0.72923436  0.81993726  0.18078156    -0.12000
C3473       C  0.68412491  0.83314094  0.29428165     0.26100
C3474       C  0.67149571  0.83595876  0.26878908    -0.22100
C3475       C  0.66391755  0.81264468  0.25410855     0.21000
C3476       C  0.66879305  0.78668505  0.26484273     0.26000
C3477       C  0.68063163  0.78374727  0.29082723    -0.22000
C3478       C  0.68840046  0.80719463  0.30540582     0.20900
F3479       F  0.70043324  0.80495216  0.33021700    -0.12000
F3480       F  0.69190801  0.85555523  0.30854163    -0.14300
F3481       F  0.66084121  0.76445434  0.25033717    -0.14300
F3482       F  0.65074733  0.81510846  0.22988214    -0.12000
C3483       C  0.67830329  0.94685033  0.22242289     0.26100
C3484       C  0.66812573  0.92172455  0.21336870    -0.22100
C3485       C  0.66461649  0.91811466  0.18515019     0.21000
C3486       C  0.67215493  0.93854791  0.16651704     0.26000
C3487       C  0.68459180  0.96305917  0.17535422    -0.22000
C3488       C  0.68581713  0.96724183  0.20395842     0.20900
F3489       F  0.69430117  0.99142544  0.21438480    -0.12000
F3490       F  0.68132661  0.95164115  0.24941635    -0.14300
F3491       F  0.66529377  0.93481726  0.14013131    -0.14300
F3492       F  0.65297388  0.89501278  0.17549949    -0.12000
C3493       C  0.60653399  0.84863566  0.33059338     0.26100
C3494       C  0.58537599  0.83261486  0.31979013    -0.22100
C3495       C  0.58134383  0.83272662  0.29135280     0.21000
C3496       C  0.59779627  0.84832545  0.27438705     0.26000
C3497       C  0.61899963  0.86410359  0.28515405    -0.22000
C3498       C  0.62321202  0.86397009  0.31349897     0.20900
F3499       F  0.64373376  0.87854803  0.32469373    -0.12000
F3500       F  0.61081158  0.84984199  0.35779641    -0.14300
F3501       F  0.59372066  0.84708194  0.24715117    -0.14300
F3502       F  0.56215136  0.81672897  0.27973061    -0.12000
C3503       C  0.59895451  0.92400372  0.22876096     0.26100
C3504       C  0.61583440  0.91998286  0.25141579    -0.22100
C3505       C  0.61004721  0.93341584  0.27587716     0.21000
C3506       C  0.58696887  0.95005974  0.27799201     0.26000
C3507       C  0.56916804  0.95322628  0.25562385    -0.22000
C3508       C  0.57579965  0.94048630  0.23076994     0.20900
F3509       F  0.55912831  0.94255467  0.20872871    -0.12000
F3510       F  0.60381878  0.91044083  0.20520573    -0.14300
F3511       F  0.58184475  0.96254519  0.30207161    -0.14300
F3512       F  0.62654437  0.92996660  0.29788098    -0.12000
C3513       C  0.29451264  0.83460780  0.25752499     0.26100
C3514       C  0.28952795  0.82874857  0.22988524    -0.22100
C3515       C  0.31178177  0.82141005  0.21349506     0.21000
C3516       C  0.33811588  0.82084026  0.22412574     0.26000
C3517       C  0.34310397  0.82704436  0.25146577    -0.22000
C3518       C  0.32111344  0.83373436  0.26820623     0.20900
F3519       F  0.32553339  0.84079437  0.29451457    -0.12000
F3520       F  0.27386005  0.84214597  0.27396783    -0.14300
F3521       F  0.35902843  0.81478987  0.20742126    -0.14300
F3522       F  0.30819454  0.81438741  0.18702378    -0.12000
C3523       C  0.36382204  0.77192513  0.27774286     0.26100
C3524       C  0.37373442  0.79411685  0.29256068    -0.22100
C3525       C  0.36653599  0.79832121  0.31952655     0.21000
C3526       C  0.35076277  0.77926176  0.33226193     0.26000
C3527       C  0.34283332  0.75561049  0.31808149    -0.22000
C3528       C  0.34784077  0.75300570  0.29019603     0.20900
F3529       F  0.33923201  0.73117994  0.27543440    -0.12000
F3530       F  0.37005338  0.76862452  0.25120233    -0.14300
F3531       F  0.34436818  0.78316700  0.35871111    -0.14300
F3532       F  0.37447921  0.82105867  0.33317982    -0.12000
C3533       C  0.35537684  0.89394935  0.25106706     0.26100
C3534       C  0.37435507  0.87675380  0.23798829    -0.22100
C3535       C  0.37659953  0.87873651  0.20966939     0.21000
C3536       C  0.35977772  0.89693996  0.19474007     0.26000
C3537       C  0.34087054  0.91414113  0.20791898    -0.22000
C3538       C  0.33935878  0.91278831  0.23634190     0.20900
F3539       F  0.32115814  0.92870528  0.24976450    -0.12000
F3540       F  0.35111321  0.89137388  0.27802881    -0.14300
F3541       F  0.36187558  0.89770405  0.16737881    -0.14300
F3542       F  0.39408104  0.86194991  0.19631386    -0.12000
C3543       C  0.47203834  0.82172057  0.33528166     0.26100
C3544       C  0.47784818  0.79338878  0.33743673    -0.22100
C3545       C  0.45866373  0.77618732  0.32430300     0.21000
C3546       C  0.43852182  0.78655337  0.30597763     0.26000
C3547       C  0.43363728  0.81498232  0.30257287    -0.22000
C3548       C  0.45034689  0.83214978  0.31885268     0.20900
F3549       F  0.44500359  0.85923111  0.32055943    -0.12000
F3550       F  0.48680237  0.83973939  0.35013406    -0.14300
F3551       F  0.42390538  0.76820929  0.29145356    -0.14300
F3552       F  0.45732574  0.74943097  0.33086788    -0.12000
C3553       C  0.45291906  0.87084417  0.25056790     0.26100
C3554       C  0.43047223  0.87126027  0.26757461    -0.22100
C3555       C  0.42347563  0.89450109  0.28259521     0.21000
C3556       C  0.43919076  0.91730035  0.28118896     0.26000
C3557       C  0.46136836  0.91735036  0.26388207    -0.22000
C3558       C  0.46832285  0.89428508  0.24836490     0.20900
F3559       F  0.48966960  0.89458780  0.23131972    -0.12000
F3560       F  0.45905943  0.84831191  0.23553457    -0.14300
F3561       F  0.43210946  0.93982906  0.29587039    -0.14300
F3562       F  0.40135042  0.89498031  0.29863424    -0.12000
C3563       C  0.50354242  0.29789028  0.34584567     0.26100
C3564       C  0.50007432  0.27194096  0.33421012    -0.22100
C3565       C  0.49644685  0.26943036  0.30598687     0.21000
C3566       C  0.49749131  0.29240770  0.28957845     0.26000
C3567       C  0.50186071  0.31821887  0.30111353    -0.22000
C3568       C  0.50445013  0.32091667  0.32937732     0.20900
F3569       F  0.50751636  0.34575813  0.34111772    -0.12000
F3570       F  0.50656805  0.30083002  0.37307536    -0.14300
F3571       F  0.49469897  0.28953290  0.26230301    -0.14300
F3572       F  0.49128645  0.24477540  0.29441159    -0.12000
C3573       C  0.44104338  0.19741038  0.44430672     0.26100
C3574       C  0.44802110  0.21081954  0.42005645    -0.22100
C3575       C  0.43521854  0.23630053  0.41550883     0.21000
C3576       C  0.42271511  0.25081333  0.43662839     0.26000
C3577       C  0.41589183  0.23792072  0.46114905    -0.22000
C3578       C  0.42434300  0.21031083  0.46391945     0.20900
F3579       F  0.41640949  0.19557751  0.48549490    -0.12000
F3580       F  0.45013692  0.17155002  0.44896790    -0.14300
F3581       F  0.41800294  0.27782783  0.43276380    -0.14300
F3582       F  0.43153273  0.24593219  0.39005684    -0.12000
C3583       C  0.54892593  0.23398440  0.46394380     0.26100
C3584       C  0.55489884  0.20879874  0.45104587    -0.22100
C3585       C  0.58065264  0.19665749  0.45528159     0.21000
C3586       C  0.59993068  0.20937237  0.47196445     0.26000
C3587       C  0.59333812  0.23372623  0.48569985    -0.22000
C3588       C  0.56773275  0.24592971  0.48158324     0.20900
F3589       F  0.56108688  0.26967307  0.49441960    -0.12000
F3590       F  0.52528699  0.24764440  0.45891304    -0.14300
F3591       F  0.62471348  0.19743642  0.47555673    -0.14300
F3592       F  0.58687437  0.17208613  0.44389359    -0.12000
C3593       C  0.29105935  0.13635712  0.23789134     0.26100
C3594       C  0.29113575  0.11401243  0.25576415    -0.22100
C3595       C  0.26670202  0.10606625  0.26698013     0.21000
C3596       C  0.24274707  0.12067245  0.26153427     0.26000
C3597       C  0.24244001  0.14393887  0.24445005    -0.22000
C3598       C  0.26697941  0.15121845  0.23229161     0.20900
F3599       F  0.26785605  0.17284769  0.21527566    -0.12000
F3600       F  0.31429115  0.14385120  0.22583629    -0.14300
F3601       F  0.21987106  0.11183530  0.27344305    -0.14300
F3602       F  0.26620791  0.08464426  0.28431583    -0.12000
C3603       C  0.35245314  0.15682568  0.26939279     0.26100
C3604       C  0.33528955  0.14287029  0.28675815    -0.22100
C3605       C  0.32011421  0.15693636  0.30605397     0.21000
C3606       C  0.32109335  0.18526192  0.30717422     0.26000
C3607       C  0.33741558  0.19945854  0.28889555    -0.22000
C3608       C  0.35373415  0.18506318  0.27059369     0.20900
F3609       F  0.36966071  0.19834370  0.25291945    -0.12000
F3610       F  0.36676784  0.14302485  0.25029403    -0.14300
F3611       F  0.30610832  0.19882011  0.32599157    -0.14300
F3612       F  0.30417876  0.14318742  0.32334462    -0.12000
C3613       C  0.42167682  0.12534954  0.31133024     0.26100
C3614       C  0.41819861  0.13152785  0.33909499    -0.22100
C3615       C  0.39357448  0.12436028  0.35118656     0.21000
C3616       C  0.37314204  0.11157608  0.33591138     0.26000
C3617       C  0.37694011  0.10521786  0.30840875    -0.22000
C3618       C  0.40144758  0.11207925  0.29634520     0.20900
F3619       F  0.40516736  0.10774632  0.26949251    -0.12000
F3620       F  0.44387164  0.13373528  0.29799217    -0.14300
F3621       F  0.34924463  0.10598041  0.34783608    -0.14300
F3622       F  0.38909817  0.12979479  0.37775934    -0.12000
C3623       C  0.30151178  0.03250492  0.24875540     0.26100
C3624       C  0.31576720  0.05578415  0.24145638    -0.22100
C3625       C  0.32064480  0.06062395  0.21410615     0.21000
C3626       C  0.31252843  0.04186934  0.19429887     0.26000
C3627       C  0.29596308  0.01950781  0.20089313    -0.22000
C3628       C  0.29138841  0.01474014  0.22873716     0.20900
F3629       F  0.27810386  0.99215235  0.23673076    -0.12000
F3630       F  0.29718854  0.02712093  0.27528599    -0.14300
F3631       F  0.32359752  0.04449589  0.16955576    -0.14300
F3632       F  0.33437350  0.08309983  0.20655284    -0.12000
C3633       C  0.38755384  0.05399683  0.24978602     0.26100
C3634       C  0.37219892  0.05219022  0.27336500    -0.22100
C3635       C  0.38118833  0.03511337  0.29445139     0.21000
C3636       C  0.40555963  0.02030005  0.29212734     0.26000
C3637       C  0.42136622  0.02267660  0.26870837    -0.22000
C3638       C  0.41177626  0.03932455  0.24736957     0.20900
F3639       F  0.42676397  0.04310080  0.22486489    -0.12000
F3640       F  0.38064456  0.07221621  0.23021525    -0.14300
F3641       F  0.41388937  0.00409645  0.31294921    -0.14300
F3642       F  0.36688837  0.03366769  0.31768245    -0.12000
C3643       C  0.66140832  0.17362868  0.24067196     0.26100
C3644       C  0.65516265  0.14801807  0.25132985    -0.22100
C3645       C  0.67638686  0.12876258  0.25534625     0.21000
C3646       C  0.70340490  0.13533445  0.24956554     0.26000
C3647       C  0.70976979  0.16147161  0.24010730    -0.22000
C3648       C  0.68834017  0.18036725  0.23532911     0.20900
F3649       F  0.69353111  0.20557111  0.22548310    -0.12000
F3650       F  0.64137233  0.19239692  0.23610432    -0.14300
F3651       F  0.72346337  0.11677166  0.25480182    -0.14300
F3652       F  0.67119479  0.10425387  0.26662146    -0.12000
C3653       C  0.65128518  0.17466300  0.30666611     0.26100
C3654       C  0.62462536  0.17636123  0.29664109    -0.22100
C3655       C  0.61106263  0.20160904  0.29450814     0.21000
C3656       C  0.62531893  0.22525193  0.29908873     0.26000
C3657       C  0.65302785  0.22345172  0.30492746    -0.22000
C3658       C  0.66585368  0.19837398  0.31002387     0.20900
F3659       F  0.69243179  0.19696016  0.31750958    -0.12000
F3660       F  0.66383200  0.15008477  0.31046031    -0.14300
F3661       F  0.61261761  0.24983910  0.29615176    -0.14300
F3662       F  0.58514708  0.20354241  0.28505017    -0.12000
C3663       C  0.62715904  0.07799807  0.23578613     0.26100
C3664       C  0.61924574  0.10431131  0.22776802    -0.22100
C3665       C  0.62416440  0.11278703  0.20120721     0.21000
C3666       C  0.63704592  0.09508382  0.18286521     0.26000
C3667       C  0.64588612  0.06885764  0.19114173    -0.22000
C3668       C  0.64083947  0.06068850  0.21797711     0.20900
F3669       F  0.65097832  0.03682683  0.22793538    -0.12000
F3670       F  0.62403574  0.06989806  0.26176071    -0.14300
F3671       F  0.64115294  0.10375513  0.15721118    -0.14300
F3672       F  0.61721469  0.13851438  0.19334052    -0.12000
C3673       C  0.52226462  0.16557200  0.31748980     0.26100
C3674       C  0.52816643  0.16234681  0.34553939    -0.22100
C3675       C  0.55314889  0.14920552  0.35229067     0.21000
C3676       C  0.57285979  0.14378984  0.33235529     0.26000
C3677       C  0.56752477  0.14929623  0.30482301    -0.22000
C3678       C  0.54151553  0.15904965  0.29759155     0.20900
F3679       F  0.53499199  0.16327923  0.27111752    -0.12000
F3680       F  0.49792220  0.17604157  0.30919437    -0.14300
F3681       F  0.59692564  0.13218156  0.33989308    -0.14300
F3682       F  0.55823589  0.14006727  0.37772717    -0.12000
C3683       C  0.52842694  0.07981106  0.24435933     0.26100
C3684       C  0.53177306  0.05984071  0.26446818    -0.22100
C3685       C  0.55257100  0.06191131  0.28405792     0.21000
C3686       C  0.56993256  0.08360258  0.28342890     0.26000
C3687       C  0.56735036  0.10280759  0.26271263    -0.22000
C3688       C  0.54656032  0.10122871  0.24329418     0.20900
F3689       F  0.54394856  0.12029014  0.22353985    -0.12000
F3690       F  0.50788694  0.07839589  0.22582929    -0.14300
F3691       F  0.59008192  0.08529464  0.30240377    -0.14300
F3692       F  0.55726918  0.04207047  0.30276457    -0.12000
loop_ 
_geom_bond_atom_site_label_1 
_geom_bond_atom_site_label_2 
_geom_bond_distance 
_geom_bond_site_symmetry_2 
_ccdc_geom_bond_type 
N1            C5   1.344       .  A
N1            C2   1.361       .  A
N1         C3644   1.455       .  S
C2            C3   1.385       .  A
C2         C3654   1.440       .  S
C3            C4   1.379       .  A
C3         C3677   1.509       .  S
C4            C5   1.391       .  A
C4         C3687   1.438       .  S
C5         C3664   1.474       .  S
N6           C10   1.345       .  A
N6            C7   1.347       .  A
N6         C3604   1.418       .  S
C7            C8   1.387       .  A
C7         C3594   1.488       .  S
C8            C9   1.401       .  A
C8         C3624   1.475       .  S
C9           C10   1.387       .  A
C9         C3634   1.471       .  S
C10        C3617   1.488       .  S
C11          C13   1.556       .  S
C11          C15   1.540       .  S
C11          C14   1.527       .  S
C11        C3674   1.565       .  S
C12          C16   1.546       .  S
C12          C18   1.535       .  S
C12          C17   1.558       .  S
C12        C3574   1.566       .  S
C13          C21   1.393       .  A
C13          C16   1.426       .  A
C14          C25   1.369       .  A
C14          C17   1.398       .  A
C15          C29   1.376       .  A
C15          C18   1.394       .  A
C16          C19   1.374       .  A
C17          C23   1.387       .  A
C18          C26   1.380       .  A
C19          N20   1.348       .  A
C19          H32   1.081       .  S
N20          C21   1.355       .  A
N20        C3584   1.444       .  S
C21          H22   1.081       .  S
C23          N24   1.355       .  A
C23          H33   1.078       .  S
N24          C25   1.349       .  A
N24        C3564   1.431       .  S
C25          H31   1.082       .  S
C26          N27   1.364       .  A
C26          H28   1.082       .  S
N27          C29   1.362       .  A
N27        C3614   1.451       .  S
C29          H30   1.081       .  S
N34          C38   1.365       .  A
N34          C35   1.357       .  A
N34        C3524   1.407       .  S
C35          C36   1.358       .  A
C35        C3517   1.490       .  S
C36          C37   1.399       .  A
C36        C3534   1.503       .  S
C37          C38   1.408       .  A
C37        C3554   1.429       .  S
C38        C3547   1.561       .  S
N39          C43   1.359       .  A
N39          C40   1.356       .  A
N39        C3467   1.432       .  S
C40          C41   1.377       .  A
C40        C3474   1.474       .  S
C41          C42   1.402       .  A
C41        C3497   1.508       .  S
C42          C43   1.408       .  A
C42        C3504   1.463       .  S
C43        C3484   1.518       .  S
C44          C46   1.536       .  S
C44          C48   1.538       .  S
C44          C47   1.559       .  S
C44        C3444   1.576       .  S
C45          C49   1.550       .  S
C45          C51   1.549   1_565  S
C45          C50   1.538       .  S
C45        C3487   1.580       .  S
C46          C54   1.361   1_545  A
C46          C49   1.411   1_545  A
C47          C58   1.395       .  A
C47          C50   1.403   1_545  A
C48          C62   1.381       .  A
C48          C51   1.405       .  A
C49          C52   1.392       .  A
C50          C56   1.369       .  A
C51          C59   1.369       .  A
C52          N53   1.362       .  A
C52          H65   1.081       .  S
N53          C54   1.345       .  A
N53        C3457   1.436       .  S
C54          H55   1.081   1_565  S
C56          N57   1.352   1_565  A
C56          H66   1.081       .  S
N57          C58   1.366       .  A
N57        C3434   1.447       .  S
C58          H64   1.082       .  S
C59          N60   1.358       .  A
C59          H61   1.081       .  S
N60          C62   1.363       .  A
N60        C3667   1.445       .  S
C62          H63   1.082       .  S
C67          C69   1.569       .  S
C67          C71   1.526       .  S
C67          C70   1.565       .  S
C67        C3424   1.593       .  S
C68          C72   1.561       .  S
C68          C74   1.549       .  S
C68          C73   1.552       .  S
C68        C3544   1.592       .  S
C69          C77   1.398       .  A
C69          C72   1.418       .  A
C70          C81   1.395       .  A
C70          C73   1.411       .  A
C71          C85   1.365       .  A
C71          C74   1.397       .  A
C72          C75   1.383       .  A
C73          C79   1.383       .  A
C74          C82   1.394       .  A
C75          N76   1.361       .  A
C75          H88   1.082       .  S
N76          C77   1.370       .  A
N76        C3494   1.463       .  S
C77          H78   1.082       .  S
C79          N80   1.354       .  A
C79          H89   1.080       .  S
N80          C81   1.363       .  A
N80        C3404   1.448       .  S
C81          H87   1.082       .  S
C82          N83   1.366       .  A
C82          H84   1.082       .  S
N83          C85   1.346       .  A
N83        C3414   1.436       .  S
C85          H86   1.083       .  S
C90          C92   1.548       .  S
C90          C94   1.549   1_565  S
C90          C93   1.545       .  S
C90        C3627   1.541   1_565  S
C91          C95   1.559       .  S
C91          C97   1.536       .  S
C91          C96   1.568       .  S
C91        C3397   1.551       .  S
C92         C100   1.382       .  A
C92          C95   1.398       .  A
C93         C104   1.386       .  A
C93          C96   1.397       .  A
C94         C108   1.399       .  A
C94          C97   1.392   1_545  A
C95          C98   1.398       .  A
C96         C102   1.396       .  A
C97         C105   1.376       .  A
C98          N99   1.366       .  A
C98         H111   1.081       .  S
N99         C100   1.358       .  A
N99        C3537   1.454       .  S
C100        H101   1.082       .  S
C102        N103   1.365       .  A
C102        H112   1.082       .  S
N103        C104   1.362       .  A
N103       C3377   1.457       .  S
C104        H110   1.082   1_565  S
C105        N106   1.343   1_565  A
C105        H107   1.081       .  S
N106        C108   1.358       .  A
N106       C3387   1.437       .  S
C108        H109   1.082       .  S
N113        C117   1.346       .  A
N113        C114   1.343       .  A
N113       C3324   1.420       .  S
C114        C115   1.374       .  A
C114       C3344   1.465       .  S
C115        C116   1.374       .  A
C115       C3364   1.451       .  S
C116        C117   1.372       .  A
C116       C3357   1.457       .  S
C117       C3334   1.469       .  S
N118        C122   1.374       .  A
N118        C119   1.364       .  A
N118       C3287   1.418       .  S
C119        C120   1.363       .  A
C119       C3277   1.498       .  S
C120        C121   1.410       .  A
C120       C3307   1.521       .  S
C121        C122   1.431       .  A
C121       C3317   1.443       .  S
C122       C3297   1.593       .  S
C123        C125   1.540       .  S
C123        C127   1.532       .  S
C123        C126   1.563       .  S
C123       C3264   1.600       .  S
C124        C128   1.530       .  S
C124        C130   1.540       .  S
C124        C129   1.555       .  S
C124       C3294   1.599       .  S
C125        C133   1.375       .  A
C125        C128   1.419       .  A
C126        C137   1.397       .  A
C126        C129   1.430       .  A
C127        C141   1.369       .  A
C127        C130   1.410       .  A
C128        C131   1.370       .  A
C129        C135   1.379       .  A
C130        C138   1.369       .  A
C131        N132   1.343       .  A
C131        H144   1.083       .  S
N132        C133   1.352       .  A
N132       C3254   1.420       .  S
C133        H134   1.084       .  S
C135        N136   1.355       .  A
C135        H145   1.079       .  S
N136        C137   1.361       .  A
N136       C3247   1.459       .  S
C137        H143   1.082       .  S
C138        N139   1.352       .  A
C138        H140   1.082       .  S
N139        C141   1.351       .  A
N139       C3354   1.415       .  S
C141        H142   1.082       .  S
N146        C150   1.350       .  A
N146        C147   1.359       .  A
N146       C3207   1.419       .  S
C147        C148   1.396       .  A
C147       C3194   1.496       .  S
C148        C149   1.431       .  A
C148       C3214   1.542       .  S
C149        C150   1.416       .  A
C149       C3234   1.455       .  S
C150       C3227   1.557       .  S
N151        C155   1.352       .  A
N151        C152   1.356       .  A
N151       C3144   1.438       .  S
C152        C153   1.385       .  A
C152       C3154   1.455       .  S
C153        C154   1.389       .  A
C153       C3174   1.516       .  S
C154        C155   1.394       .  A
C154       C3184   1.445       .  S
C155       C3167   1.497       .  S
C156        C158   1.522       .  S
C156        C160   1.538       .  S
C156        C159   1.542       .  S
C156       C3127   1.549       .  S
C157        C161   1.538       .  S
C157        C163   1.541   1_655  S
C157        C162   1.562   1_655  S
C157       C3164   1.556       .  S
C158        C166   1.364       .  A
C158        C161   1.389   1_455  A
C159        C170   1.377       .  A
C159        C162   1.401       .  A
C160        C174   1.383       .  A
C160        C163   1.418       .  A
C161        C164   1.382       .  A
C162        C168   1.390       .  A
C163        C171   1.373       .  A
C164        N165   1.360       .  A
C164        H177   1.082       .  S
N165        C166   1.350   1_655  A
N165       C3137   1.431       .  S
C166        H167   1.082       .  S
C168        N169   1.364       .  A
C168        H178   1.082   1_455  S
N169        C170   1.357       .  A
N169       C3117   1.449       .  S
C170        H176   1.082       .  S
C171        N172   1.344       .  A
C171        H173   1.082       .  S
N172        C174   1.350       .  A
N172       C3347   1.425       .  S
C174        H175   1.083       .  S
C179        C181   1.553       .  S
C179        C183   1.565       .  S
C179        C182   1.570       .  S
C179       C3224   1.595       .  S
C180        C184   1.531       .  S
C180        C186   1.567       .  S
C180        C185   1.550       .  S
C180       C3104   1.588       .  S
C181        C189   1.398       .  A
C181        C184   1.393       .  A
C182        C193   1.395       .  A
C182        C185   1.412       .  A
C183        C197   1.391       .  A
C183        C186   1.423       .  A
C184        C187   1.373       .  A
C185        C191   1.385       .  A
C186        C194   1.400       .  A
C187        N188   1.355       .  A
C187        H200   1.082       .  S
N188        C189   1.369       .  A
N188       C3094   1.454       .  S
C189        H190   1.082       .  S
C191        N192   1.355       .  A
C191        H201   1.082       .  S
N192        C193   1.357       .  A
N192       C3084   1.443       .  S
C193        H199   1.077       .  S
C194        N195   1.367       .  A
C194        H196   1.082       .  S
N195        C197   1.363       .  A
N195       C3177   1.471       .  S
C197        H198   1.081       .  S
C202        C204   1.523       .  S
C202        C206   1.540   1_655  S
C202        C205   1.562       .  S
C202       C3217   1.578       .  S
C203        C207   1.540   1_455  S
C203        C209   1.595       .  S
C203        C208   1.573       .  S
C203       C3064   1.609       .  S
C204        C212   1.382       .  A
C204        C207   1.382       .  A
C205        C216   1.390       .  A
C205        C208   1.416   1_655  A
C206        C220   1.375       .  A
C206        C209   1.428       .  A
C207        C210   1.374       .  A
C208        C214   1.403       .  A
C209        C217   1.416       .  A
C210        N211   1.358       .  A
C210        H223   1.079       .  S
N211        C212   1.362       .  A
N211       C3077   1.449       .  S
C212        H213   1.081       .  S
C214        N215   1.369       .  A
C214        H224   1.082       .  S
N215        C216   1.358   1_455  A
N215       C3054   1.470       .  S
C216        H222   1.076       .  S
C217        N218   1.377       .  A
C217        H219   1.082       .  S
N218        C220   1.348       .  A
N218       C3304   1.461       .  S
C220        H221   1.083       .  S
N225        C229   1.348       .  A
N225        C226   1.345       .  A
N225       C3004   1.434       .  S
C226        C227   1.381       .  A
C226       C3017   1.459       .  S
C227        C228   1.379       .  A
C227       C3037   1.472       .  S
C228        C229   1.383       .  A
C228       C3044   1.469       .  S
C229       C3024   1.457       .  S
N230        C234   1.355       .  A
N230        C231   1.371       .  A
N230       C2954   1.458       .  S
C231        C232   1.406       .  A
C231       C2964   1.469       .  S
C232        C233   1.410       .  A
C232       C2974   1.549       .  S
C233        C234   1.410       .  A
C233       C2994   1.454       .  S
C234       C2984   1.527       .  S
C235        C237   1.534       .  S
C235        C239   1.535       .  S
C235        C238   1.557       .  S
C235       C2944   1.608       .  S
C236        C240   1.548       .  S
C236        C242   1.550       .  S
C236        C241   1.554       .  S
C236       C2977   1.618       .  S
C237        C245   1.364       .  A
C237        C240   1.425       .  A
C238        C249   1.389       .  A
C238        C241   1.424       .  A
C239        C253   1.373       .  A
C239        C242   1.418       .  A
C240        C243   1.382       .  A
C241        C247   1.380       .  A
C242        C250   1.373       .  A
C243        N244   1.350       .  A
C243        H256   1.083       .  S
N244        C245   1.342       .  A
N244       C2937   1.419       .  S
C245        H246   1.084       .  S
C247        N248   1.353       .  A
C247        H257   1.079       .  S
N248        C249   1.355       .  A
N248       C2924   1.447       .  S
C249        H255   1.082       .  S
C250        N251   1.354       .  A
C250        H252   1.082       .  S
N251        C253   1.354       .  A
N251       C3034   1.425       .  S
C253        H254   1.082       .  S
N258        C262   1.351       .  A
N258        C259   1.365       .  A
N258       C2874   1.437       .  S
C259        C260   1.406       .  A
C259       C2884   1.497       .  S
C260        C261   1.403       .  A
C260       C2904   1.510       .  S
C261        C262   1.390       .  A
C261       C2917   1.463       .  S
C262       C2894   1.507       .  S
N263        C267   1.343       .  A
N263        C264   1.356       .  A
N263       C2837   1.421       .  S
C264        C265   1.389       .  A
C264       C2824   1.482       .  S
C265        C266   1.412       .  A
C265       C2844   1.512       .  S
C266        C267   1.401       .  A
C266       C2864   1.451       .  S
C267       C2857   1.523       .  S
C268        C270   1.544   1_554  S
C268        C272   1.538       .  S
C268        C271   1.559       .  S
C268       C2804   1.581       .  S
C269        C273   1.532       .  S
C269        C275   1.519   1_556  S
C269        C274   1.563       .  S
C269       C2847   1.576       .  S
C270        C278   1.382       .  A
C270        C273   1.415       .  A
C271        C282   1.388       .  A
C271        C274   1.416   1_554  A
C272        C286   1.375       .  A
C272        C275   1.400       .  A
C273        C276   1.370       .  A
C274        C280   1.385       .  A
C275        C283   1.363       .  A
C276        N277   1.342       .  A
C276        H289   1.083       .  S
N277        C278   1.355       .  A
N277       C2817   1.421       .  S
C278        H279   1.083       .  S
C280        N281   1.361       .  A
C280        H290   1.079       .  S
N281        C282   1.363   1_556  A
N281       C2794   1.457       .  S
C282        H288   1.081       .  S
C283        N284   1.350       .  A
C283        H285   1.083       .  S
N284        C286   1.354       .  A
N284       C3027   1.419       .  S
C286        H287   1.082       .  S
C291        C293   1.519       .  S
C291        C295   1.541       .  S
C291        C294   1.560       .  S
C291       C2907   1.559       .  S
C292        C296   1.542       .  S
C292        C298   1.594       .  S
C292        C297   1.570       .  S
C292       C2784   1.589       .  S
C293        C301   1.380       .  A
C293        C296   1.378       .  A
C294        C305   1.386       .  A
C294        C297   1.410       .  A
C295        C309   1.378       .  A
C295        C298   1.417       .  A
C296        C299   1.382       .  A
C297        C303   1.398       .  A
C298        C306   1.419       .  A
C299        N300   1.362       .  A
C299        H312   1.082       .  S
N300        C301   1.357       .  A
N300       C2777   1.448       .  S
C301        H302   1.081       .  S
C303        N304   1.368       .  A
C303        H313   1.082       .  S
N304        C305   1.360       .  A
N304       C2764   1.465       .  S
C305        H311   1.075       .  S
C306        N307   1.379       .  A
C306        H308   1.082       .  S
N307        C309   1.352       .  A
N307       C2854   1.472       .  S
C309        H310   1.082       .  S
C314        C316   1.536       .  S
C314        C318   1.555   1_554  S
C314        C317   1.541       .  S
C314       C2757   1.566   1_554  S
C315        C319   1.566       .  S
C315        C321   1.557       .  S
C315        C320   1.562       .  S
C315       C2987   1.582       .  S
C316        C324   1.380       .  A
C316        C319   1.393       .  A
C317        C328   1.380       .  A
C317        C320   1.401       .  A
C318        C332   1.395       .  A
C318        C321   1.421   1_556  A
C319        C322   1.401       .  A
C320        C326   1.390       .  A
C321        C329   1.390       .  A
C322        N323   1.373       .  A
C322        H335   1.079       .  S
N323        C324   1.355       .  A
N323       C2744   1.463       .  S
C324        H325   1.082       .  S
C326        N327   1.364       .  A
C326        H336   1.080       .  S
N327        C328   1.359       .  A
N327       C2737   1.453       .  S
C328        H334   1.082   1_554  S
C329        N330   1.354   1_554  A
C329        H331   1.082       .  S
N330        C332   1.358       .  A
N330       C2897   1.449       .  S
C332        H333   1.081       .  S
N337        C341   1.349       .  A
N337        C338   1.357       .  A
N337       C2684   1.425       .  S
C338        C339   1.393       .  A
C338       C2694   1.495       .  S
C339        C340   1.387       .  A
C339       C2707   1.469       .  S
C340        C341   1.376       .  A
C340       C2724   1.462       .  S
C341       C2714   1.487       .  S
N342        C346   1.339       .  A
N342        C343   1.350       .  A
N342       C2644   1.429       .  S
C343        C344   1.382       .  A
C343       C2634   1.446       .  S
C344        C345   1.366       .  A
C344       C2657   1.477       .  S
C345        C346   1.370       .  A
C345       C2677   1.428       .  S
C346       C2664   1.470       .  S
N347        C351   1.361       .  A
N347        C348   1.353       .  A
N347       C2594   1.425       .  S
C348        C349   1.370       .  A
C348       C2584   1.489       .  S
C349        C350   1.390       .  A
C349       C2604   1.471       .  S
C350        C351   1.395       .  A
C350       C2624   1.468       .  S
C351       C2614   1.502       .  S
N352        C356   1.355       .  A
N352        C353   1.363       .  A
N352       C2534   1.416       .  S
C353        C354   1.372       .  A
C353       C2547   1.457       .  S
C354        C355   1.426       .  A
C354       C2564   1.569       .  S
C355        C356   1.430       .  A
C355       C2574   1.424       .  S
C356       C2557   1.591       .  S
C357        C359   1.518       .  S
C357        C361   1.555       .  S
C357        C360   1.591       .  S
C357       C2524   1.645       .  S
C358        C362   1.542       .  S
C358        C364   1.544       .  S
C358        C363   1.603       .  S
C358       C2554   1.646       .  S
C359        C367   1.351       .  A
C359        C362   1.403       .  A
C360        C371   1.407       .  A
C360        C363   1.435       .  A
C361        C375   1.385       .  A
C361        C364   1.429       .  A
C362        C365   1.383       .  A
C363        C369   1.408       .  A
C364        C372   1.370       .  A
C365        N366   1.362       .  A
C365        H378   1.082       .  S
N366        C367   1.346       .  A
N366       C2514   1.427       .  S
C367        H368   1.082       .  S
C369        N370   1.373       .  A
C369        H379   1.074       .  S
N370        C371   1.375       .  A
N370       C2504   1.492       .  S
C371        H377   1.082       .  S
C372        N373   1.348       .  A
C372        H374   1.083       .  S
N373        C375   1.356       .  A
N373       C2607   1.428       .  S
C375        H376   1.082       .  S
C380        C382   1.553   1_556  S
C380        C384   1.563       .  S
C380        C383   1.588   1_556  S
C380       C2567   1.624       .  S
C381        C385   1.544       .  S
C381        C387   1.525       .  S
C381        C386   1.552       .  S
C381       C2494   1.619       .  S
C382        C390   1.387       .  A
C382        C385   1.424       .  A
C383        C394   1.398       .  A
C383        C386   1.426       .  A
C384        C398   1.406       .  A
C384        C387   1.413   1_556  A
C385        C388   1.382       .  A
C386        C392   1.382       .  A
C387        C395   1.360   1_554  A
C388        N389   1.353       .  A
C388        H401   1.079       .  S
N389        C390   1.358       .  A
N389       C2717   1.451       .  S
C390        H391   1.081       .  S
C392        N393   1.359       .  A
C392        H402   1.082       .  S
N393        C394   1.367       .  A
N393       C2474   1.455       .  S
C394        H400   1.079   1_554  S
C395        N396   1.332       .  A
C395        H397   1.080   1_556  S
N396        C398   1.362       .  A
N396       C2487   1.437       .  S
C398        H399   1.082       .  S
C403        C405   1.519       .  S
C403        C407   1.536       .  S
C403        C406   1.558       .  S
C403       C2617   1.568       .  S
C404        C408   1.534   1_554  S
C404        C410   1.556       .  S
C404        C409   1.543       .  S
C404       C2464   1.567       .  S
C405        C413   1.365       .  A
C405        C408   1.391       .  A
C406        C417   1.381       .  A
C406        C409   1.403   1_556  A
C407        C421   1.360   1_556  A
C407        C410   1.424   1_556  A
C408        C411   1.370       .  A
C409        C415   1.384       .  A
C410        C418   1.391       .  A
C411        N412   1.357       .  A
C411        H424   1.082       .  S
N412        C413   1.353       .  A
N412       C2454   1.427       .  S
C413        H414   1.082       .  S
C415        N416   1.359       .  A
C415        H425   1.082       .  S
N416        C417   1.358   1_554  A
N416       C2444   1.447       .  S
C417        H423   1.079       .  S
C418        N419   1.358       .  A
C418        H420   1.082       .  S
N419        C421   1.342       .  A
N419       C2667   1.426       .  S
C421        H422   1.084   1_554  S
C426        C428   1.531       .  S
C426        C430   1.542       .  S
C426        C429   1.563       .  S
C426       C2427   1.541       .  S
C427        C431   1.541       .  S
C427        C433   1.536       .  S
C427        C432   1.535       .  S
C427       C2704   1.538       .  S
C428        C436   1.379       .  A
C428        C431   1.392       .  A
C429        C440   1.399       .  A
C429        C432   1.397       .  A
C430        C444   1.374       .  A
C430        C433   1.411       .  A
C431        C434   1.379       .  A
C432        C438   1.368       .  A
C433        C441   1.388       .  A
C434        N435   1.358       .  A
C434        H447   1.082       .  S
N435        C436   1.356       .  A
N435       C2654   1.434       .  S
C436        H437   1.083       .  S
C438        N439   1.349       .  A
C438        H448   1.081       .  S
N439        C440   1.366       .  A
N439       C2414   1.446       .  S
C440        H446   1.082       .  S
C441        N442   1.345       .  A
C441        H443   1.083       .  S
N442        C444   1.344       .  A
N442       C2434   1.427       .  S
C444        H445   1.083       .  S
N449        C453   1.372       .  A
N449        C450   1.374       .  A
N449       C2377   1.465       .  S
C450        C451   1.401       .  A
C450       C2384   1.535       .  S
C451        C452   1.374       .  A
C451       C2407   1.429       .  S
C452        C453   1.374       .  A
C452       C2394   1.517       .  S
C453       C2364   1.463       .  S
N454        C458   1.350       .  A
N454        C455   1.357       .  A
N454       C2314   1.457       .  S
C455        C456   1.402       .  A
C455       C2324   1.458       .  S
C456        C457   1.397       .  A
C456       C2347   1.516       .  S
C457        C458   1.400       .  A
C457       C2357   1.471       .  S
C458       C2337   1.481       .  S
N459        C463   1.343       .  A
N459        C460   1.357       .  A
N459       C2264   1.426       .  S
C460        C461   1.380       .  A
C460       C2274   1.455       .  S
C461        C462   1.392       .  A
C461       C2294   1.512       .  S
C462        C463   1.383       .  A
C462       C2304   1.432       .  S
C463       C2284   1.494       .  S
N464        C468   1.356       .  A
N464        C465   1.367       .  A
N464       C2214   1.475       .  S
C465        C466   1.402       .  A
C465       C2227   1.445       .  S
C466        C467   1.400       .  A
C466       C2244   1.543       .  S
C467        C468   1.411       .  A
C467       C2254   1.471       .  S
C468       C2234   1.490       .  S
C469        C471   1.545       .  S
C469        C473   1.543       .  S
C469        C472   1.563       .  S
C469       C2194   1.548       .  S
C470        C474   1.545       .  S
C470        C476   1.556       .  S
C470        C475   1.541       .  S
C470       C2287   1.546       .  S
C471        C479   1.393       .  A
C471        C474   1.388       .  A
C472        C483   1.394       .  A
C472        C475   1.398       .  A
C473        C487   1.373       .  A
C473        C476   1.400       .  A
C474        C477   1.379       .  A
C475        C481   1.378       .  A
C476        C484   1.404       .  A
C477        N478   1.358       .  A
C477        H490   1.080       .  S
N478        C479   1.368       .  A
N478       C2237   1.458       .  S
C479        H480   1.082       .  S
C481        N482   1.357       .  A
C481        H491   1.082       .  S
N482        C483   1.366       .  A
N482       C2184   1.451       .  S
C483        H489   1.082       .  S
C484        N485   1.367       .  A
C484        H486   1.082       .  S
N485        C487   1.349       .  A
N485       C2207   1.455       .  S
C487        H488   1.080       .  S
C492        C494   1.572   1_565  S
C492        C496   1.573       .  S
C492        C495   1.534   1_565  S
C492       C2247   1.598       .  S
C493        C497   1.553       .  S
C493        C499   1.536       .  S
C493        C498   1.560       .  S
C493       C2177   1.590       .  S
C494        C502   1.398       .  A
C494        C497   1.416       .  A
C495        C506   1.376   1_545  A
C495        C498   1.406       .  A
C496        C510   1.412       .  A
C496        C499   1.415   1_565  A
C497        C500   1.393       .  A
C498        C504   1.384       .  A
C499        C507   1.373       .  A
C500        N501   1.363       .  A
C500        H513   1.082       .  S
N501        C502   1.364       .  A
N501       C2397   1.462       .  S
C502        H503   1.082       .  S
C504        N505   1.359       .  A
C504        H514   1.082       .  S
N505        C506   1.354   1_545  A
N505       C2154   1.436       .  S
C506        H512   1.082       .  S
C507        N508   1.338   1_545  A
C507        H509   1.082       .  S
N508        C510   1.365       .  A
N508       C2164   1.445       .  S
C510        H511   1.082       .  S
C515        C517   1.556   1_545  S
C515        C519   1.572       .  S
C515        C518   1.551       .  S
C515       C2344   1.565       .  S
C516        C520   1.530       .  S
C516        C522   1.533       .  S
C516        C521   1.556       .  S
C516       C2134   1.549       .  S
C517        C525   1.394       .  A
C517        C520   1.390       .  A
C518        C529   1.388       .  A
C518        C521   1.403   1_545  A
C519        C533   1.405       .  A
C519        C522   1.407   1_545  A
C520        C523   1.378       .  A
C521        C527   1.384       .  A
C522        C530   1.376   1_565  A
C523        N524   1.362       .  A
C523        H536   1.082       .  S
N524        C525   1.370       .  A
N524       C2297   1.460       .  S
C525        H526   1.082       .  S
C527        N528   1.352       .  A
C527        H537   1.078       .  S
N528        C529   1.360   1_565  A
N528       C2124   1.444       .  S
C529        H535   1.082       .  S
C530        N531   1.349       .  A
C530        H532   1.080   1_545  S
N531        C533   1.367       .  A
N531       C2144   1.458       .  S
C533        H534   1.082       .  S
C538        C540   1.551       .  S
C538        C542   1.557       .  S
C538        C541   1.531       .  S
C538       C2387   1.574       .  S
C539        C543   1.535       .  S
C539        C545   1.540       .  S
C539        C544   1.553       .  S
C539       C2104   1.573       .  S
C540        C548   1.395       .  A
C540        C543   1.399       .  A
C541        C552   1.361       .  A
C541        C544   1.405       .  A
C542        C556   1.388       .  A
C542        C545   1.420       .  A
C543        C546   1.366       .  A
C544        C550   1.389       .  A
C545        C553   1.387       .  A
C546        N547   1.349       .  A
C546        H559   1.079       .  S
N547        C548   1.368       .  A
N547       C2114   1.457       .  S
C548        H549   1.078       .  S
C550        N551   1.363       .  A
C550        H560   1.081       .  S
N551        C552   1.349       .  A
N551       C2094   1.431       .  S
C552        H558   1.080       .  S
C553        N554   1.350       .  A
C553        H555   1.082       .  S
N554        C556   1.346       .  A
N554       C2334   1.438       .  S
C556        H557   1.079       .  S
O561       Ni567   1.911       .  S
O561        C582   1.272       .  A
O562       Ni585   1.887       .  S
O562        C571   1.259       .  A
O563       Ni567   1.898       .  S
O563       Ni585   1.886       .  S
O563       Ni579   1.917       .  S
O563        H586   0.980       .  S
C564       C2084   1.464       .  S
C564        O581   1.283       .  A
C564        O573   1.274       .  A
O565       Ni584   1.890       .  S
O565        C571   1.262       .  A
O566       Ni584   1.905       .  S
O566        C568   1.264       .  A
Ni567       O570   1.935       .  S
Ni567       O572   1.908       .  S
C568       C2074   1.480       .  S
C568        O578   1.261       .  A
O569       Ni585   1.866       .  S
O569        C575   1.261       .  A
O570        C575   1.275       .  A
C571       C2064   1.449       .  S
O572        C574   1.269       .  A
O573       Ni584   1.880       .  S
C574       C2597   1.459       .  S
C574        O580   1.268       .  A
C575       C2277   1.430       .  S
H576        O577   0.984       .  S
O577       Ni585   1.892       .  S
O577       Ni579   1.866       .  S
O577       Ni584   1.869       .  S
O578       Ni579   1.903       .  S
Ni579       O583   1.867       .  S
Ni579       O581   1.933       .  S
O580       Ni585   1.926       .  S
C582       C2054   1.445       .  S
C582        O583   1.262       .  A
O587       Ni593   1.885       .  S
O587        C608   1.257       .  A
O588       Ni611   1.903       .  S
O588        C597   1.265       .  A
O589       Ni593   1.882       .  S
O589       Ni611   1.879       .  S
O589       Ni605   1.933       .  S
O589        H612   0.967       .  S
C590       C2024   1.479       .  S
C590        O607   1.289       .  A
C590        O599   1.279       .  A
O591       Ni610   1.906       .  S
O591        C597   1.263       .  A
O592       Ni610   1.894       .  S
O592        C594   1.263       .  A
Ni593       O596   1.906       .  S
Ni593       O598   1.895       .  S
C594       C2044   1.489       .  S
C594        O604   1.282       .  A
O595       Ni611   1.914       .  S
O595        C601   1.281       .  A
O596        C601   1.279       .  A
C597       C2327   1.453       .  S
O598        C600   1.261       .  A
O599       Ni610   1.904       .  S
C600       C3147   1.490       .  S
C600        O606   1.270       .  A
C601       C2544   1.465       .  S
H602        O603   0.969       .  S
O603       Ni611   1.911       .  S
O603       Ni605   1.896       .  S
O603       Ni610   1.880       .  S
O604       Ni605   1.968       .  S
Ni605       O609   1.951       .  S
Ni605       O607   1.946       .  S
O606       Ni611   1.938       .  S
C608       C2037   1.482       .  S
C608        O609   1.277       .  A
N613        C617   1.355       .  A
N613        C614   1.345       .  A
N613       C2127   1.443       .  S
C614        C615   1.380       .  A
C614       C2027   1.474   1_565  S
C615        C616   1.387       .  A
C615       C3134   1.456   1_565  S
C616        C617   1.391       .  A
C616       C2014   1.488       .  S
C617       C2077   1.461       .  S
N618        C622   1.337       .  A
N618        C619   1.349       .  A
N618       C3114   1.443       .  S
C619        C620   1.395       .  A
C619       C2007   1.450       .  S
C620        C621   1.409       .  A
C620       C2754   1.506       .  S
C621        C622   1.392       .  A
C621       C2484   1.477       .  S
C622       C2034   1.475   1_455  S
O623       Ni629   1.914       .  S
O623        C644   1.269       .  A
O624       Ni647   1.918       .  S
O624        C633   1.263       .  A
O625       Ni629   1.901       .  S
O625       Ni647   1.909       .  S
O625       Ni641   1.919       .  S
O625        H648   0.967       .  S
C626       C2004   1.467       .  S
C626        O643   1.283       .  A
C626        O635   1.280       .  A
O627       Ni646   1.888       .  S
O627        C633   1.256       .  A
O628       Ni646   1.893       .  S
O628        C630   1.260       .  A
Ni629       O632   1.934       .  S
Ni629       O634   1.887       .  S
C630       C1984   1.481       .  S
C630        O640   1.266       .  A
O631       Ni647   1.858       .  S
O631        C637   1.260       .  A
O632        C637   1.274       .  A
C633       C1994   1.467       .  S
O634        C636   1.264       .  A
O635       Ni646   1.899       .  S
C636       C2877   1.467       .  S
C636        O642   1.277       .  A
C637       C2367   1.444       .  S
H638        O639   0.969       .  S
O639       Ni647   1.896       .  S
O639       Ni641   1.859       .  S
O639       Ni646   1.876       .  S
O640       Ni641   1.928       .  S
Ni641       O645   1.873       .  S
Ni641       O643   1.919       .  S
O642       Ni647   1.955       .  S
C644       C3327   1.439       .  S
C644        O645   1.260       .  A
N649        C653   1.353       .  A
N649        C650   1.350   1_545  A
N649       C2157   1.440       .  S
C650        C651   1.391   1_565  A
C650       C1974   1.480       .  S
C651        C652   1.396       .  A
C651       C1967   1.479   1_545  S
C652        C653   1.391       .  A
C652       C3124   1.486       .  S
C653       C1987   1.472       .  S
O654       Ni660   1.907       .  S
O654        C675   1.264       .  A
O655       Ni678   1.848       .  S
O655        C664   1.256       .  A
O656       Ni660   1.892       .  S
O656       Ni678   1.864       .  S
O656       Ni672   1.876       .  S
O656        H679   0.967       .  S
C657       C1954   1.466       .  S
C657        O674   1.259       .  A
C657        O666   1.280       .  A
O658       Ni677   1.950       .  S
O658        C664   1.280       .  A
O659       Ni677   1.900       .  S
O659        C661   1.269       .  A
Ni660       O663   1.902       .  S
Ni660       O665   1.906       .  S
C661       C1977   1.481       .  S
C661        O671   1.276       .  A
O662       Ni678   1.905       .  S
O662        C668   1.276       .  A
O663        C668   1.277       .  A
C664       C1947   1.472       .  S
O665        C667   1.265       .  A
O666       Ni677   1.957       .  S
C667       C2827   1.482       .  S
C667        O673   1.265       .  A
C668       C1934   1.459       .  S
H669        O670   0.968       .  S
O670       Ni678   1.901       .  S
O670       Ni672   1.889       .  S
O670       Ni677   1.906       .  S
O671       Ni672   1.946       .  S
Ni672       O676   1.878       .  S
Ni672       O674   1.845       .  S
O673       Ni678   1.924       .  S
C675       C2224   1.444       .  S
C675        O676   1.261       .  A
N680        C684   1.348       .  A
N680        C681   1.349   1_455  A
N680       C1924   1.441   1_455  S
C681        C682   1.392       .  A
C681       C2087   1.464       .  S
C682        C683   1.383   1_655  A
C682       C2457   1.474       .  S
C683        C684   1.389       .  A
C683       C2814   1.486       .  S
C684       C1944   1.460       .  S
N685        C689   1.346   1_554  A
N685        C686   1.337       .  A
N685       C2797   1.453       .  S
C686        C687   1.382       .  A
C686       C1914   1.435       .  S
C687        C688   1.399       .  A
C687       C3394   1.489       .  S
C688        C689   1.401   1_554  A
C688       C2167   1.489   1_554  S
C689       C1957   1.457       .  S
O690       Ni696   1.909       .  S
O690        C711   1.267       .  A
O691       Ni714   1.888       .  S
O691        C700   1.261       .  A
O692       Ni696   1.874       .  S
O692       Ni714   1.866       .  S
O692       Ni708   1.934       .  S
O692        H715   0.965       .  S
C693       C3514   1.493       .  S
C693        O710   1.287       .  A
C693        O702   1.281       .  A
O694       Ni713   1.894       .  S
O694        C700   1.256       .  A
O695       Ni713   1.888       .  S
O695        C697   1.259       .  A
Ni696       O699   1.928       .  S
Ni696       O701   1.898       .  S
C697       C3007   1.466       .  S
C697        O707   1.264       .  A
O698       Ni714   1.909       .  S
O698        C704   1.275       .  A
O699        C704   1.281       .  A
C700       C1917   1.447       .  S
O701        C703   1.266       .  A
O702       Ni713   1.916       .  S
C703       C1904   1.469       .  S
C703        O709   1.276       .  A
C704       C1894   1.481       .  S
H705        O706   0.967       .  S
O706       Ni714   1.928       .  S
O706       Ni708   1.873       .  S
O706       Ni713   1.887       .  S
O707       Ni708   1.920       .  S
Ni708       O712   1.871       .  S
Ni708       O710   1.943       .  S
O709       Ni714   1.937       .  S
C711       C1884   1.426       .  S
C711        O712   1.262       .  A
N716        C720   1.352       .  A
N716        C717   1.355   1_655  A
N716       C1864   1.468       .  S
C717        C718   1.410       .  A
C717       C1897   1.468       .  S
C718        C719   1.424   1_455  A
C718       C2807   1.523       .  S
C719        C720   1.409       .  A
C719       C2467   1.510       .  S
C720       C1877   1.476       .  S
O721       Ni727   1.916       .  S
O721        C742   1.274       .  A
O722       Ni745   1.886       .  S
O722        C731   1.259       .  A
O723       Ni727   1.908       .  S
O723       Ni745   1.882       .  S
O723       Ni739   1.920       .  S
O723        H746   0.966       .  S
C724       C1834   1.454       .  S
C724        O741   1.272       .  A
C724        O733   1.279       .  A
O725       Ni744   1.916       .  S
O725        C731   1.263       .  A
O726       Ni744   1.895       .  S
O726        C728   1.261       .  A
Ni727       O730   1.933       .  S
Ni727       O732   1.932       .  S
C728       C3464   1.474       .  S
C728        O738   1.264       .  A
O729       Ni745   1.873       .  S
O729        C735   1.267       .  A
O730        C735   1.278       .  A
C731       C2647   1.440       .  S
O732        C734   1.275       .  A
O733       Ni744   1.930       .  S
C734       C1874   1.487       .  S
C734        O740   1.267       .  A
C735       C1844   1.466       .  S
H736        O737   0.967       .  S
O737       Ni745   1.897       .  S
O737       Ni739   1.883       .  S
O737       Ni744   1.904       .  S
O738       Ni739   1.918       .  S
Ni739       O743   1.865       .  S
Ni739       O741   1.895       .  S
O740       Ni745   1.907       .  S
C742       C1854   1.462       .  S
C742        O743   1.256       .  A
N747        C751   1.350       .  A
N747        C748   1.340   1_556  A
N747       C2447   1.448   1_556  S
C748        C749   1.382       .  A
C748       C1847   1.456       .  S
C749        C750   1.388   1_554  A
C749       C3454   1.459       .  S
C750        C751   1.400       .  A
C750       C2137   1.504       .  S
C751       C2067   1.454       .  S
O752       Ni758   1.898       .  S
O752        C773   1.260       .  A
O753       Ni776   1.938       .  S
O753        C762   1.279       .  A
O754       Ni758   1.889       .  S
O754       Ni776   1.906       .  S
O754       Ni770   1.940       .  S
O754        H777   0.964       .  S
C755       C1804   1.487       .  S
C755        O772   1.293       .  A
C755        O764   1.280       .  A
O756       Ni775   1.928       .  S
O756        C762   1.273       .  A
O757       Ni775   1.909       .  S
O757        C759   1.267       .  A
Ni758       O761   1.909       .  S
Ni758       O763   1.892       .  S
C759       C1824   1.485       .  S
C759        O769   1.276       .  A
O760       Ni776   1.954       .  S
O760        C766   1.286       .  A
O761        C766   1.277       .  A
C762       C2957   1.490       .  S
O763        C765   1.264       .  A
O764       Ni775   1.915       .  S
C765       C3597   1.503       .  S
C765        O771   1.280       .  A
C766       C3274   1.484       .  S
H767        O768   0.967       .  S
O768       Ni776   1.911       .  S
O768       Ni770   1.909       .  S
O768       Ni775   1.892       .  S
O769       Ni770   1.948       .  S
Ni770       O774   1.972       .  S
Ni770       O772   1.961       .  S
O771       Ni776   1.961       .  S
C773       C1817   1.510       .  S
C773        O774   1.281       .  A
N778        C782   1.350   1_655  A
N778        C779   1.359       .  A
N778       C3057   1.469       .  S
C779        C780   1.424       .  A
C779       C1794   1.467       .  S
C780        C781   1.459   1_655  A
C780       C2497   1.571       .  S
C781        C782   1.431       .  A
C781       C2747   1.547       .  S
C782       C1827   1.512       .  S
N783        C787   1.351       .  A
N783        C784   1.349   1_565  A
N783       C3374   1.460       .  S
C784        C785   1.422       .  A
C784       C1814   1.496       .  S
C785        C786   1.485   1_545  A
C785       C3067   1.555       .  S
C786        C787   1.416       .  A
C786       C1784   1.571       .  S
C787       C1907   1.479       .  S
N788        C792   1.357   1_554  A
N788        C789   1.350       .  A
N788       C2734   1.450       .  S
C789        C790   1.399       .  A
C789       C1807   1.495       .  S
C790        C791   1.413   1_554  A
C790       C3384   1.474       .  S
C791        C792   1.401       .  A
C791       C2174   1.531       .  S
C792       C1997   1.451       .  S
N793        C797   1.348   1_545  A
N793        C794   1.351       .  A
N793       C3437   1.449       .  S
C794        C795   1.400       .  A
C794       C1774   1.461       .  S
C795        C796   1.392   1_545  A
C795       C3074   1.484       .  S
C796        C797   1.393       .  A
C796       C1764   1.491       .  S
C797       C1857   1.467       .  S
O798       Ni804   1.934       .  S
O798        C819   1.278       .  A
O799       Ni822   1.898       .  S
O799        C808   1.263       .  A
O800       Ni804   1.904       .  S
O800       Ni822   1.905       .  S
O800       Ni816   1.909       .  S
O800        H823   0.964       .  S
C801       C1777   1.477       .  S
C801        O818   1.284       .  A
C801        O810   1.269       .  A
O802       Ni821   1.920       .  S
O802        C808   1.266       .  A
O803       Ni821   1.890       .  S
O803        C805   1.264       .  A
Ni804       O807   1.947       .  S
Ni804       O809   1.925       .  S
C805       C1754   1.496       .  S
C805        O815   1.277       .  A
O806       Ni822   1.868       .  S
O806        C812   1.262       .  A
O807        C812   1.276       .  A
C808       C1797   1.476       .  S
O809        C811   1.272       .  A
O810       Ni821   1.874       .  S
C811       C3197   1.481       .  S
C811        O817   1.273       .  A
C812       C2687   1.448       .  S
H813        O814   0.962       .  S
O814       Ni822   1.878       .  S
O814       Ni816   1.909       .  S
O814       Ni821   1.888       .  S
O815       Ni816   1.948       .  S
Ni816       O820   1.935       .  S
Ni816       O818   1.939       .  S
O817       Ni822   1.948       .  S
C819       C3647   1.495       .  S
C819        O820   1.281       .  A
N824        C828   1.366       .  A
N824        C825   1.355       .  A
N824       C2477   1.458       .  S
C825        C826   1.403       .  A
C825       C2047   1.499   1_554  S
C826        C827   1.414       .  A
C826       C2147   1.489   1_554  S
C827        C828   1.404       .  A
C827       C3447   1.522       .  S
C828       C1757   1.480       .  S
N829        C833   1.360       .  A
N829        C830   1.348       .  A
N829       C1717   1.430       .  S
C830        C831   1.364       .  A
C830       C1887   1.442       .  S
C831        C832   1.383       .  A
C831       C1737   1.503       .  S
C832        C833   1.410       .  A
C832       C1747   1.438       .  S
C833       C1724   1.529       .  S
N834        C838   1.344       .  A
N834        C835   1.352       .  A
N834       C1674   1.450       .  S
C835        C836   1.391       .  A
C835       C1937   1.449       .  S
C836        C837   1.398       .  A
C836       C1697   1.508       .  S
C837        C838   1.399       .  A
C837       C1704   1.469       .  S
C838       C1687   1.474       .  S
N839        C843   1.336       .  A
N839        C840   1.355       .  A
N839       C1634   1.436       .  S
C840        C841   1.387       .  A
C840       C2057   1.455       .  S
C841        C842   1.382       .  A
C841       C1654   1.486       .  S
C842        C843   1.374       .  A
C842       C1667   1.446       .  S
C843       C1644   1.465       .  S
N844        C848   1.366       .  A
N844        C845   1.371       .  A
N844       C1594   1.451       .  S
C845        C846   1.410       .  A
C845       C1837   1.471       .  S
C846        C847   1.451       .  A
C846       C1614   1.613       .  S
C847        C848   1.448       .  A
C847       C1624   1.458       .  S
C848       C1604   1.600       .  S
C849        C851   1.536       .  S
C849        C853   1.530       .  S
C849        C852   1.568       .  S
C849       C1607   1.631       .  S
C850        C854   1.555       .  S
C850        C856   1.539       .  S
C850        C855   1.564       .  S
C850       C1584   1.631       .  S
C851        C859   1.356       .  A
C851        C854   1.435       .  A
C852        C863   1.394       .  A
C852        C855   1.431       .  A
C853        C867   1.368       .  A
C853        C856   1.416       .  A
C854        C857   1.387       .  A
C855        C861   1.392       .  A
C856        C864   1.367       .  A
C857        N858   1.357       .  A
C857        H870   1.082       .  S
N858        C859   1.343       .  A
N858       C1647   1.428       .  S
C859        H860   1.080       .  S
C861        N862   1.360       .  A
C861        H871   1.082       .  S
N862        C863   1.366       .  A
N862       C1564   1.469       .  S
C863        H869   1.080       .  S
C864        N865   1.353       .  A
C864        H866   1.084       .  S
N865        C867   1.348       .  A
N865       C1574   1.416       .  S
C867        H868   1.082       .  S
C872        C874   1.532   1_455  S
C872        C876   1.566       .  S
C872        C875   1.572   1_455  S
C872       C1787   1.626       .  S
C873        C877   1.553       .  S
C873        C879   1.564   1_655  S
C873        C878   1.574       .  S
C873       C1617   1.633       .  S
C874        C882   1.370       .  A
C874        C877   1.407       .  A
C875        C886   1.394   1_655  A
C875        C878   1.425       .  A
C876        C890   1.396       .  A
C876        C879   1.423       .  A
C877        C880   1.392       .  A
C878        C884   1.399       .  A
C879        C887   1.382       .  A
C880        N881   1.359       .  A
C880        H893   1.081       .  S
N881        C882   1.350       .  A
N881       C1767   1.435       .  S
C882        H883   1.083       .  S
C884        N885   1.373       .  A
C884        H894   1.080       .  S
N885        C886   1.366   1_655  A
N885       C1867   1.479       .  S
C886        H892   1.081       .  S
C887        N888   1.356       .  A
C887        H889   1.078       .  S
N888        C890   1.368       .  A
N888       C1734   1.459       .  S
C890        H891   1.082       .  S
C895        C897   1.524   1_655  S
C895        C899   1.537       .  S
C895        C898   1.534       .  S
C895       C2017   1.552       .  S
C896        C900   1.563       .  S
C896        C902   1.563       .  S
C896        C901   1.546       .  S
C896       C1694   1.570       .  S
C897        C905   1.367       .  A
C897        C900   1.392       .  A
C898        C909   1.376       .  A
C898        C901   1.390   1_655  A
C899        C913   1.378       .  A
C899        C902   1.426   1_655  A
C900        C903   1.398       .  A
C901        C907   1.378       .  A
C902        C910   1.388   1_455  A
C903        N904   1.368       .  A
C903        H916   1.080       .  S
N904        C905   1.352       .  A
N904       C1964   1.451       .  S
C905        H906   1.081       .  S
C907        N908   1.361       .  A
C907        H917   1.081       .  S
N908        C909   1.359   1_455  A
N908       C1927   1.445   1_455  S
C909        H915   1.081       .  S
C910        N911   1.357       .  A
C910        H912   1.081   1_655  S
N911        C913   1.349       .  A
N911       C1657   1.442       .  S
C913        H914   1.082       .  S
C918        C920   1.541       .  S
C918        C922   1.544       .  S
C918        C921   1.548       .  S
C918       C1727   1.549       .  S
C919        C923   1.531       .  S
C919        C925   1.541       .  S
C919        C924   1.548       .  S
C919       C1544   1.540       .  S
C920        C928   1.383       .  A
C920        C923   1.390       .  A
C921        C932   1.391       .  A
C921        C924   1.404       .  A
C922        C936   1.377       .  A
C922        C925   1.408       .  A
C923        C926   1.377       .  A
C924        C930   1.380       .  A
C925        C933   1.387       .  A
C926        N927   1.360       .  A
C926        H939   1.077       .  S
N927        C928   1.358       .  A
N927       C1554   1.456       .  S
C928        H929   1.077       .  S
C930        N931   1.356       .  A
C930        H940   1.082       .  S
N931        C932   1.363       .  A
N931       C1534   1.452       .  S
C932        H938   1.082       .  S
C933        N934   1.352       .  A
C933        H935   1.082       .  S
N934        C936   1.349       .  A
N934       C1684   1.436       .  S
C936        H937   1.081       .  S
N941        C945   1.355       .  A
N941        C942   1.349       .  A
N941       C3244   1.448       .  S
C942        C943   1.407       .  A
C942       C1514   1.497       .  S
C943        C944   1.417       .  A
C943       C2117   1.484       .  S
C944        C945   1.405       .  A
C944       C3577   1.531       .  S
C945       C1524   1.468       .  S
N946        C950   1.342       .  A
N946        C947   1.357       .  A
N946       C2927   1.447       .  S
C947        C948   1.396       .  A
C947       C1494   1.461       .  S
C948        C949   1.382       .  A
C948       C1557   1.489       .  S
C949        C950   1.379       .  A
C949       C3257   1.460       .  S
C950       C1504   1.463       .  S
N951        C955   1.342       .  A
N951        C952   1.343       .  A
N951       C3567   1.434       .  S
C952        C953   1.376       .  A
C952       C1474   1.439       .  S
C953        C954   1.373       .  A
C953       C2437   1.470       .  S
C954        C955   1.380       .  A
C954       C2934   1.449       .  S
C955       C1484   1.464       .  S
O956       Ni962   1.890       .  S
O956        C977   1.254       .  A
O957       Ni980   1.910       .  S
O957        C966   1.272       .  A
O958       Ni962   1.853       .  S
O958       Ni980   1.867       .  S
O958       Ni974   1.893       .  S
O958        H981   0.967       .  S
C959       C3607   1.452       .  S
C959        O976   1.272       .  A
C959        O968   1.278       .  A
O960       Ni979   1.906       .  S
O960        C966   1.265       .  A
O961       Ni979   1.900       .  S
O961        C963   1.263       .  A
Ni962       O965   1.905       .  S
Ni962       O967   1.863       .  S
C963       C2967   1.483       .  S
C963        O973   1.267       .  A
O964       Ni980   1.917       .  S
O964        C970   1.288       .  A
O965        C970   1.284       .  A
C966       C1487   1.470       .  S
O967        C969   1.254       .  A
O968       Ni979   1.912       .  S
C969       C1527   1.446       .  S
C969        O975   1.266       .  A
C970       C1507   1.448       .  S
H971        O972   0.965       .  S
O972       Ni980   1.917       .  S
O972       Ni974   1.885       .  S
O972       Ni979   1.874       .  S
O973       Ni974   1.920       .  S
Ni974       O978   1.909       .  S
Ni974       O976   1.893       .  S
O975       Ni980   1.923       .  S
C977       C3284   1.442       .  S
C977        O978   1.267       .  A
O982       Ni988   1.924       .  S
O982       C1003   1.275       .  A
O983      Ni1006   1.839       .  S
O983        C992   1.264       .  A
O984       Ni988   1.886       .  S
O984      Ni1006   1.864       .  S
O984      Ni1000   1.883       .  S
O984       H1007   0.966       .  S
C985       C1477   1.444       .  S
C985       O1002   1.274       .  A
C985        O994   1.277       .  A
O986      Ni1005   1.920       .  S
O986        C992   1.271       .  A
O987      Ni1005   1.918       .  S
O987        C989   1.266       .  A
Ni988       O991   1.927       .  S
Ni988       O993   1.917       .  S
C989       C1454   1.479       .  S
C989        O999   1.263       .  A
O990      Ni1006   1.864       .  S
O990        C996   1.265       .  A
O991        C996   1.279       .  A
C992       C1467   1.437       .  S
O993        C995   1.271       .  A
O994      Ni1005   1.898       .  S
C995       C2697   1.509       .  S
C995       O1001   1.278       .  A
C996       C3204   1.443       .  S
H997        O998   0.967       .  S
O998      Ni1006   1.873       .  S
O998      Ni1000   1.859       .  S
O998      Ni1005   1.894       .  S
O999      Ni1000   1.921       .  S
Ni1000     O1004   1.840       .  S
Ni1000     O1002   1.901       .  S
O1001     Ni1006   1.954       .  S
C1003      C3657   1.419       .  S
C1003      O1004   1.255       .  A
O1008     Ni1014   1.905       .  S
O1008      C1029   1.269       .  A
O1009     Ni1032   1.911       .  S
O1009      C1018   1.264       .  A
O1010     Ni1014   1.905       .  S
O1010     Ni1032   1.952       .  S
O1010     Ni1026   1.903       .  S
O1010      H1033   0.967       .  S
C1011      C3527   1.447       .  S
C1011      O1028   1.278       .  A
C1011      O1020   1.277       .  A
O1012     Ni1031   1.881       .  S
O1012      C1018   1.260       .  A
O1013     Ni1031   1.882       .  S
O1013      C1015   1.258       .  A
Ni1014     O1017   1.903       .  S
Ni1014     O1019   1.892       .  S
C1015      C1714   1.476       .  S
C1015      O1025   1.267       .  A
O1016     Ni1032   1.894       .  S
O1016      C1022   1.259       .  A
O1017      C1022   1.262       .  A
C1018      C1434   1.455       .  S
O1019      C1021   1.261       .  A
O1020     Ni1031   1.881       .  S
C1021      C1447   1.454       .  S
C1021      O1027   1.275       .  A
C1022      C1497   1.457       .  S
H1023      O1024   0.964       .  S
O1024     Ni1032   1.892       .  S
O1024     Ni1026   1.876       .  S
O1024     Ni1031   1.871       .  S
O1025     Ni1026   1.917       .  S
Ni1026     O1030   1.896       .  S
Ni1026     O1028   1.903       .  S
O1027     Ni1032   1.942       .  S
C1029      C3014   1.452       .  S
C1029      O1030   1.266       .  A
O1034     Ni1040   1.932       .  S
O1034      C1055   1.270       .  A
O1035     Ni1058   1.892       .  S
O1035      C1044   1.268       .  A
O1036     Ni1040   1.910       .  S
O1036     Ni1058   1.887       .  S
O1036     Ni1052   1.874       .  S
O1036      H1059   0.966       .  S
C1037      C2374   1.458       .  S
C1037      O1054   1.269       .  A
C1037      O1046   1.275       .  A
O1038     Ni1057   1.920       .  S
O1038      C1044   1.271       .  A
O1039     Ni1057   1.915       .  S
O1039      C1041   1.269       .  A
Ni1040     O1043   1.923       .  S
Ni1040     O1045   1.906       .  S
C1041      C2887   1.489       .  S
C1041      O1051   1.275       .  A
O1042     Ni1058   1.912       .  S
O1042      C1048   1.275       .  A
O1043      C1048   1.272       .  A
C1044      C3337   1.452       .  S
O1045      C1047   1.267       .  A
O1046     Ni1057   1.916       .  S
C1047      C1517   1.505       .  S
C1047      O1053   1.282       .  A
C1048      C1414   1.476       .  S
H1049      O1050   0.966       .  S
O1050     Ni1058   1.912       .  S
O1050     Ni1052   1.899       .  S
O1050     Ni1057   1.905       .  S
O1051     Ni1052   1.941       .  S
Ni1052     O1056   1.858       .  S
Ni1052     O1054   1.911       .  S
O1053     Ni1058   1.972       .  S
C1055      C1424   1.431       .  S
C1055      O1056   1.257       .  A
N1060      C1064   1.339       .  A
N1060      C1061   1.358       .  A
N1060      C3407   1.455       .  S
C1061      C1062   1.412       .  A
C1061      C1444   1.452       .  S
C1062      C1063   1.427       .  A
C1062      C2947   1.550       .  S
C1063      C1064   1.404       .  A
C1063      C2424   1.474       .  S
C1064      C1407   1.498       .  S
N1065      C1069   1.352       .  A
N1065      C1066   1.352       .  A
N1065      C1567   1.459       .  S
C1066      C1067   1.414       .  A
C1066      C1394   1.491       .  S
C1067      C1068   1.418       .  A
C1067      C2204   1.487       .  S
C1068      C1069   1.393       .  A
C1068      C3427   1.535       .  S
C1069      C1384   1.445       .  S
N1070      C1074   1.348       .  A
N1070      C1071   1.339       .  A
N1070      C2417   1.444       .  S
C1071      C1072   1.390       .  A
C1071      C1377   1.465       .  S
C1072      C1073   1.379       .  A
C1072      C1577   1.443       .  S
C1073      C1074   1.383       .  A
C1073      C3097   1.502       .  S
C1074      C1464   1.432       .  S
O1075     Ni1081   1.891       .  S
O1075      C1096   1.258       .  A
O1076     Ni1099   1.877       .  S
O1076      C1085   1.265       .  A
O1077     Ni1081   1.886       .  S
O1077     Ni1099   1.874       .  S
O1077     Ni1093   1.938       .  S
O1077      H1100   0.968       .  S
C1078      C1374   1.468       .  S
C1078      O1095   1.284       .  A
C1078      O1087   1.283       .  A
O1079     Ni1098   1.916       .  S
O1079      C1085   1.271       .  A
O1080     Ni1098   1.903       .  S
O1080      C1082   1.264       .  A
Ni1081     O1084   1.928       .  S
Ni1081     O1086   1.892       .  S
C1082      C1404   1.497       .  S
C1082      O1092   1.279       .  A
O1083     Ni1099   1.913       .  S
O1083      C1089   1.276       .  A
O1084      C1089   1.282       .  A
C1085      C2637   1.441       .  S
O1086      C1088   1.260       .  A
O1087     Ni1098   1.912       .  S
C1088      C1597   1.506       .  S
C1088      O1094   1.277       .  A
C1089      C3477   1.475       .  S
H1090      O1091   0.966       .  S
O1091     Ni1099   1.896       .  S
O1091     Ni1093   1.874       .  S
O1091     Ni1098   1.867       .  S
O1092     Ni1093   1.957       .  S
Ni1093     O1097   1.918       .  S
Ni1093     O1095   1.920       .  S
O1094     Ni1099   1.963       .  S
C1096      C1387   1.454       .  S
C1096      O1097   1.266       .  A
N1101      C1105   1.344       .  A
N1101      C1102   1.366       .  A
N1101      C3087   1.461       .  S
C1102      C1103   1.431       .  A
C1102      C1367   1.511       .  S
C1103      C1104   1.417       .  A
C1103      C2107   1.555       .  S
C1104      C1105   1.389       .  A
C1104      C3587   1.475       .  S
C1105      C1457   1.482       .  S
N1106      C1110   1.358       .  A
N1106      C1107   1.369       .  A
N1106      C2507   1.486       .  S
C1107      C1108   1.416       .  A
C1107      C1354   1.460       .  S
C1108      C1109   1.457       .  A
C1108      C1587   1.581       .  S
C1109      C1110   1.436       .  A
C1109      C3107   1.529       .  S
C1110      C1347   1.510       .  S
N1111      C1115   1.330       .  A
N1111      C1112   1.350       .  A
N1111      C2097   1.446       .  S
C1112      C1113   1.409       .  A
C1112      C1427   1.459       .  S
C1113      C1114   1.406       .  A
C1113      C2774   1.524       .  S
C1114      C1115   1.384       .  A
C1114      C2517   1.449       .  S
C1115      C1337   1.474       .  S
O1116     Ni1122   1.877       .  S
O1116      C1137   1.256       .  A
O1117     Ni1140   1.869       .  S
O1117      C1126   1.259       .  A
O1118     Ni1122   1.879       .  S
O1118     Ni1140   1.857       .  S
O1118     Ni1134   1.879       .  S
O1118      H1141   0.968       .  S
C1119      C1364   1.466       .  S
C1119      O1136   1.254       .  A
C1119      O1128   1.277       .  A
O1120     Ni1139   1.923       .  S
O1120      C1126   1.273       .  A
O1121     Ni1139   1.895       .  S
O1121      C1123   1.268       .  A
Ni1122     O1125   1.875       .  S
Ni1122     O1127   1.896       .  S
C1123      C1344   1.512       .  S
C1123      O1133   1.299       .  A
O1124     Ni1140   1.928       .  S
O1124      C1130   1.286       .  A
O1125      C1130   1.276       .  A
C1126      C3157   1.447       .  S
O1127      C1129   1.260       .  A
O1128     Ni1139   1.948       .  S
C1129      C2317   1.506       .  S
C1129      O1135   1.275       .  A
C1130      C2537   1.463       .  S
H1131      O1132   0.965       .  S
O1132     Ni1140   1.944       .  S
O1132     Ni1134   1.921       .  S
O1132     Ni1139   1.906       .  S
O1133     Ni1134   2.014       .  S
Ni1134     O1138   1.931       .  S
Ni1134     O1136   1.861       .  S
O1135     Ni1140   1.966       .  S
C1137      C1334   1.468       .  S
C1137      O1138   1.272       .  A
N1142      C1146   1.367       .  A
N1142      C1143   1.356       .  A
N1142      C2767   1.455       .  S
C1143      C1144   1.421       .  A
C1143      C1324   1.527       .  S
C1144      C1145   1.422       .  A
C1144      C1547   1.475       .  S
C1145      C1146   1.399       .  A
C1145      C3267   1.550       .  S
C1146      C1417   1.467       .  S
N1147      C1151   1.355       .  A
N1147      C1148   1.343       .  A
N1147      C2187   1.450       .  S
C1148      C1149   1.416       .  A
C1148      C1304   1.511       .  S
C1149      C1150   1.487       .  A
C1149      C2787   1.535       .  S
C1150      C1151   1.413       .  A
C1150      C2527   1.585       .  S
C1151      C1317   1.472       .  S
N1152      C1156   1.343       .  A
N1152      C1153   1.342       .  A
N1152      C1537   1.450       .  S
C1153      C1154   1.384       .  A
C1153      C1437   1.448       .  S
C1154      C1155   1.389       .  A
C1154      C3417   1.474       .  S
C1155      C1156   1.392       .  A
C1155      C2197   1.489       .  S
C1156      C1297   1.441       .  S
O1157     Ni1163   1.921       .  S
O1157      C1178   1.270       .  A
O1158     Ni1181   1.883       .  S
O1158      C1167   1.266       .  A
O1159     Ni1163   1.905       .  S
O1159     Ni1181   1.886       .  S
O1159     Ni1175   1.947       .  S
O1159      H1182   0.968       .  S
C1160      C1677   1.498       .  S
C1160      O1177   1.289       .  A
C1160      O1169   1.284       .  A
O1161     Ni1180   1.899       .  S
O1161      C1167   1.265       .  A
O1162     Ni1180   1.916       .  S
O1162      C1164   1.265       .  A
Ni1163     O1166   1.956       .  S
Ni1163     O1168   1.931       .  S
C1164      C2217   1.523       .  S
C1164      O1174   1.287       .  A
O1165     Ni1181   1.937       .  S
O1165      C1171   1.281       .  A
O1166      C1171   1.285       .  A
C1167      C1294   1.452       .  S
O1168      C1170   1.272       .  A
O1169     Ni1180   1.925       .  S
C1170      C1327   1.530       .  S
C1170      O1176   1.283       .  A
C1171      C1307   1.501       .  S
H1172      O1173   0.966       .  S
O1173     Ni1181   1.941       .  S
O1173     Ni1175   1.865       .  S
O1173     Ni1180   1.884       .  S
O1174     Ni1175   1.997       .  S
Ni1175     O1179   1.883       .  S
Ni1175     O1177   1.949       .  S
O1176     Ni1181   1.981       .  S
C1178      C2834   1.444       .  S
C1178      O1179   1.265       .  A
O1183     Ni1189   1.913       .  S
O1183      C1204   1.266       .  A
O1184     Ni1207   1.915       .  S
O1184      C1193   1.268       .  A
O1185     Ni1189   1.904       .  S
O1185     Ni1207   1.908       .  S
O1185     Ni1201   1.910       .  S
O1185      H1208   0.965       .  S
C1186      C2267   1.460       .  S
C1186      O1203   1.276       .  A
C1186      O1195   1.277       .  A
O1187     Ni1206   1.910       .  S
O1187      C1193   1.264       .  A
O1188     Ni1206   1.900       .  S
O1188      C1190   1.265       .  A
Ni1189     O1192   1.912       .  S
Ni1189     O1194   1.903       .  S
C1190      C2587   1.478       .  S
C1190      O1200   1.273       .  A
O1191     Ni1207   1.912       .  S
O1191      C1197   1.277       .  A
O1192      C1197   1.277       .  A
C1193      C1637   1.470       .  S
O1194      C1196   1.266       .  A
O1195     Ni1206   1.905       .  S
C1196      C1397   1.500       .  S
C1196      O1202   1.272       .  A
C1197      C1357   1.466       .  S
H1198      O1199   0.967       .  S
O1199     Ni1207   1.909       .  S
O1199     Ni1201   1.904       .  S
O1199     Ni1206   1.899       .  S
O1200     Ni1201   1.938       .  S
Ni1201     O1205   1.918       .  S
Ni1201     O1203   1.911       .  S
O1202     Ni1207   1.939       .  S
C1204      C1314   1.481       .  S
C1204      O1205   1.268       .  A
O1209     Ni1217   1.884       .  S
O1209      C1219   1.274       .  A
O1210     Ni1217   1.890   1_655  S
O1210      C1220   1.275       .  A
O1211     Ni1217   1.906   1_655  S
O1211      C1221   1.281       .  A
O1212     Ni1217   1.906       .  S
O1212      C1222   1.280       .  A
O1213     Ni1218   1.885       .  S
O1213      C1222   1.276       .  A
O1214     Ni1218   1.891   1_655  S
O1214      C1221   1.276       .  A
O1215     Ni1218   1.907   1_655  S
O1215      C1220   1.279       .  A
O1216     Ni1218   1.905       .  S
O1216      C1219   1.279       .  A
Ni1217    Ni1218   2.399       .  S
C1219      C3367   1.442       .  S
C1220      C3237   1.442       .  S
C1221      C3187   1.455       .  S
C1222      C3314   1.455       .  S
O1223     Ni1231   1.871   1_655  S
O1223      C1233   1.273       .  A
O1224     Ni1231   1.873       .  S
O1224      C1234   1.273       .  A
O1225     Ni1231   1.896   1_655  S
O1225      C1235   1.278       .  A
O1226     Ni1231   1.898       .  S
O1226      C1236   1.278       .  A
O1227     Ni1232   1.928       .  S
O1227      C1236   1.284       .  A
O1228     Ni1232   1.920   1_655  S
O1228      C1235   1.282       .  A
O1229     Ni1232   1.903       .  S
O1229      C1234   1.279       .  A
O1230     Ni1232   1.903   1_655  S
O1230      C1233   1.279       .  A
Ni1231    Ni1232   2.390       .  S
C1233      C1664   1.453       .  S
C1234      C1744   1.451       .  S
C1235      C1627   1.475       .  S
C1236      C1707   1.481       .  S
O1237     Ni1245   1.897       .  S
O1237      C1247   1.279       .  A
O1238     Ni1245   1.898   1_556  S
O1238      C1248   1.277       .  A
O1239     Ni1245   1.908   1_556  S
O1239      C1249   1.278       .  A
O1240     Ni1245   1.898       .  S
O1240      C1250   1.279       .  A
O1241     Ni1246   1.918       .  S
O1241      C1250   1.282       .  A
O1242     Ni1246   1.924   1_556  S
O1242      C1249   1.284       .  A
O1243     Ni1246   1.864   1_556  S
O1243      C1248   1.271       .  A
O1244     Ni1246   1.857       .  S
O1244      C1247   1.269       .  A
Ni1245    Ni1246   2.400       .  S
C1247      C2674   1.428       .  S
C1248      C2577   1.422       .  S
C1249      C2627   1.466       .  S
C1250      C2727   1.472       .  S
O1251     Ni1259   1.893   1_565  S
O1251      C1261   1.277       .  A
O1252     Ni1259   1.894       .  S
O1252      C1262   1.277       .  A
O1253     Ni1259   1.874       .  S
O1253      C1263   1.275       .  A
O1254     Ni1259   1.875   1_565  S
O1254      C1264   1.275       .  A
O1255     Ni1260   1.880   1_565  S
O1255      C1264   1.273       .  A
O1256     Ni1260   1.882       .  S
O1256      C1263   1.274       .  A
O1257     Ni1260   1.939       .  S
O1257      C1262   1.286       .  A
O1258     Ni1260   1.938   1_565  S
O1258      C1261   1.287       .  A
Ni1259    Ni1260   2.393       .  S
C1261      C2257   1.486       .  S
C1262      C2354   1.478       .  S
C1263      C2404   1.443       .  S
C1264      C2307   1.435       .  S
O1265     Ni1273   1.897   1_556  S
O1265      C1275   1.278       .  A
O1266     Ni1273   1.904       .  S
O1266      C1276   1.278       .  A
O1267     Ni1273   1.903   1_556  S
O1267      C1277   1.278       .  A
O1268     Ni1273   1.908       .  S
O1268      C1278   1.280       .  A
O1269     Ni1274   1.916       .  S
O1269      C1278   1.280       .  A
O1270     Ni1274   1.911   1_556  S
O1270      C1277   1.280       .  A
O1271     Ni1274   1.908       .  S
O1271      C1276   1.280       .  A
O1272     Ni1274   1.906   1_556  S
O1272      C1275   1.279       .  A
Ni1273    Ni1274   2.396       .  S
C1275      C2867   1.455       .  S
C1276      C2997   1.458       .  S
C1277      C2914   1.457       .  S
C1278      C3047   1.465       .  S
O1279     Ni1287   1.872   1_545  S
O1279      C1289   1.273       .  A
O1280     Ni1287   1.869       .  S
O1280      C1290   1.273       .  A
O1281     Ni1287   1.918       .  S
O1281      C1291   1.283       .  A
O1282     Ni1287   1.920   1_545  S
O1282      C1292   1.282       .  A
O1283     Ni1288   1.906   1_545  S
O1283      C1292   1.280       .  A
O1284     Ni1288   1.901       .  S
O1284      C1291   1.279       .  A
O1285     Ni1288   1.897       .  S
O1285      C1290   1.276       .  A
O1286     Ni1288   1.896   1_545  S
O1286      C1289   1.278       .  A
Ni1287    Ni1288   2.394       .  S
C1289      C3684   1.443       .  S
C1290      C3557   1.429       .  S
C1291      C3507   1.478       .  S
C1292      C3637   1.479       .  S
C1293      C1294   1.404       .  A
C1293      C1298   1.384       .  A
C1293      F1300   1.359       .  S
C1294      C1295   1.410       .  A
C1295      C1296   1.383       .  A
C1295      F1302   1.358       .  S
C1296      C1297   1.391       .  A
C1296      F1301   1.358       .  S
C1297      C1298   1.400       .  A
C1298      F1299   1.358       .  S
C1303      C1304   1.407       .  A
C1303      C1308   1.410       .  A
C1303      F1310   1.357       .  S
C1304      C1305   1.411       .  A
C1305      C1306   1.412       .  A
C1305      F1312   1.357       .  S
C1306      C1307   1.410       .  A
C1306      F1311   1.358       .  S
C1307      C1308   1.409       .  A
C1308      F1309   1.357       .  S
C1313      C1314   1.408       .  A
C1313      C1318   1.402       .  A
C1313      F1320   1.358       .  S
C1314      C1315   1.412       .  A
C1315      C1316   1.393       .  A
C1315      F1322   1.358       .  S
C1316      C1317   1.397       .  A
C1316      F1321   1.358       .  S
C1317      C1318   1.404       .  A
C1318      F1319   1.357       .  S
C1323      C1324   1.410       .  A
C1323      C1328   1.416       .  A
C1323      F1330   1.357       .  S
C1324      C1325   1.413       .  A
C1325      C1326   1.424       .  A
C1325      F1332   1.357       .  S
C1326      C1327   1.416       .  A
C1326      F1331   1.357       .  S
C1327      C1328   1.417       .  A
C1328      F1329   1.358       .  S
C1333      C1334   1.418       .  A
C1333      C1338   1.387       .  A
C1333      F1340   1.356       .  S
C1334      C1335   1.397       .  A
C1335      C1336   1.397       .  A
C1335      F1342   1.358       .  S
C1336      C1337   1.412       .  A
C1336      F1341   1.356       .  S
C1337      C1338   1.388       .  A
C1338      F1339   1.358       .  S
C1343      C1344   1.410       .  A
C1343      C1348   1.414       .  A
C1343      F1350   1.357       .  S
C1344      C1345   1.419       .  A
C1345      C1346   1.414       .  A
C1345      F1352   1.358       .  S
C1346      C1347   1.405       .  A
C1346      F1351   1.357       .  S
C1347      C1348   1.412       .  A
C1348      F1349   1.357       .  S
C1353      C1354   1.399       .  A
C1353      C1358   1.395       .  A
C1353      F1360   1.357       .  S
C1354      C1355   1.400       .  A
C1355      C1356   1.392       .  A
C1355      F1362   1.358       .  S
C1356      C1357   1.408       .  A
C1356      F1361   1.359       .  S
C1357      C1358   1.406       .  A
C1358      F1359   1.357       .  S
C1363      C1364   1.398       .  A
C1363      C1368   1.389       .  A
C1363      F1370   1.358       .  S
C1364      C1365   1.415       .  A
C1365      C1366   1.400       .  A
C1365      F1372   1.358       .  S
C1366      C1367   1.399       .  A
C1366      F1371   1.356       .  S
C1367      C1368   1.409       .  A
C1368      F1369   1.353       .  S
C1373      C1374   1.403       .  A
C1373      C1378   1.394       .  A
C1373      F1380   1.358       .  S
C1374      C1375   1.411       .  A
C1375      C1376   1.391       .  A
C1375      F1382   1.358       .  S
C1376      C1377   1.395       .  A
C1376      F1381   1.358       .  S
C1377      C1378   1.407       .  A
C1378      F1379   1.357       .  S
C1383      C1384   1.403       .  A
C1383      C1388   1.396       .  A
C1383      F1390   1.357       .  S
C1384      C1385   1.389       .  A
C1385      C1386   1.375       .  A
C1385      F1392   1.358       .  S
C1386      C1387   1.410       .  A
C1386      F1391   1.357       .  S
C1387      C1388   1.402       .  A
C1388      F1389   1.357       .  S
C1393      C1394   1.405       .  A
C1393      C1398   1.405       .  A
C1393      F1400   1.357       .  S
C1394      C1395   1.404       .  A
C1395      C1396   1.400       .  A
C1395      F1402   1.357       .  S
C1396      C1397   1.414       .  A
C1396      F1401   1.358       .  S
C1397      C1398   1.414       .  A
C1398      F1399   1.357       .  S
C1403      C1404   1.408       .  A
C1403      C1408   1.407       .  A
C1403      F1410   1.357       .  S
C1404      C1405   1.414       .  A
C1405      C1406   1.407       .  A
C1405      F1412   1.358       .  S
C1406      C1407   1.404       .  A
C1406      F1411   1.357       .  S
C1407      C1408   1.408       .  A
C1408      F1409   1.357       .  S
C1413      C1414   1.411       .  A
C1413      C1418   1.400       .  A
C1413      F1420   1.358       .  S
C1414      C1415   1.409       .  A
C1415      C1416   1.389       .  A
C1415      F1422   1.359       .  S
C1416      C1417   1.399       .  A
C1416      F1421   1.357       .  S
C1417      C1418   1.401       .  A
C1418      F1419   1.357       .  S
C1423      C1424   1.393       .  A
C1423      C1428   1.390       .  A
C1423      F1430   1.357       .  S
C1424      C1425   1.396       .  A
C1425      C1426   1.380       .  A
C1425      F1432   1.353       .  S
C1426      C1427   1.398       .  A
C1426      F1431   1.359       .  S
C1427      C1428   1.413       .  A
C1428      F1429   1.356       .  S
C1433      C1434   1.400       .  A
C1433      C1438   1.394       .  A
C1433      F1440   1.358       .  S
C1434      C1435   1.411       .  A
C1435      C1436   1.379       .  A
C1435      F1442   1.354       .  S
C1436      C1437   1.387       .  A
C1436      F1441   1.358       .  S
C1437      C1438   1.404       .  A
C1438      F1439   1.358       .  S
C1443      C1444   1.401       .  A
C1443      C1448   1.395       .  A
C1443      F1450   1.358       .  S
C1444      C1445   1.398       .  A
C1445      C1446   1.386       .  A
C1445      F1452   1.357       .  S
C1446      C1447   1.404       .  A
C1446      F1451   1.358       .  S
C1447      C1448   1.405       .  A
C1448      F1449   1.358       .  S
C1453      C1454   1.409       .  A
C1453      C1458   1.404       .  A
C1453      F1460   1.357       .  S
C1454      C1455   1.406       .  A
C1455      C1456   1.395       .  A
C1455      F1462   1.359       .  S
C1456      C1457   1.406       .  A
C1456      F1461   1.357       .  S
C1457      C1458   1.404       .  A
C1458      F1459   1.357       .  S
C1463      C1464   1.395       .  A
C1463      C1468   1.377       .  A
C1463      F1470   1.358       .  S
C1464      C1465   1.402       .  A
C1465      C1466   1.383       .  A
C1465      F1472   1.356       .  S
C1466      C1467   1.399       .  A
C1466      F1471   1.358       .  S
C1467      C1468   1.403       .  A
C1468      F1469   1.357       .  S
C1473      C1474   1.391       .  A
C1473      C1478   1.382       .  A
C1473      F1480   1.358       .  S
C1474      C1475   1.401       .  A
C1475      C1476   1.385       .  A
C1475      F1482   1.358       .  S
C1476      C1477   1.399       .  A
C1476      F1481   1.358       .  S
C1477      C1478   1.408       .  A
C1478      F1479   1.357       .  S
C1483      C1484   1.396       .  A
C1483      C1488   1.388       .  A
C1483      F1490   1.357       .  S
C1484      C1485   1.403       .  A
C1485      C1486   1.392       .  A
C1485      F1492   1.356       .  S
C1486      C1487   1.406       .  A
C1486      F1491   1.358       .  S
C1487      C1488   1.412       .  A
C1488      F1489   1.358       .  S
C1493      C1494   1.400       .  A
C1493      C1498   1.390       .  A
C1493      F1500   1.359       .  S
C1494      C1495   1.405       .  A
C1495      C1496   1.379       .  A
C1495      F1502   1.346       .  S
C1496      C1497   1.398       .  A
C1496      F1501   1.359       .  S
C1497      C1498   1.410       .  A
C1498      F1499   1.354       .  S
C1503      C1504   1.408       .  A
C1503      C1508   1.388       .  A
C1503      F1510   1.355       .  S
C1504      C1505   1.396       .  A
C1505      C1506   1.390       .  A
C1505      F1512   1.358       .  S
C1506      C1507   1.407       .  A
C1506      F1511   1.359       .  S
C1507      C1508   1.394       .  A
C1508      F1509   1.358       .  S
C1513      C1514   1.406       .  A
C1513      C1518   1.404       .  A
C1513      F1520   1.356       .  S
C1514      C1515   1.404       .  A
C1515      C1516   1.405       .  A
C1515      F1522   1.358       .  S
C1516      C1517   1.419       .  A
C1516      F1521   1.358       .  S
C1517      C1518   1.411       .  A
C1518      F1519   1.357       .  S
C1523      C1524   1.402       .  A
C1523      C1528   1.393       .  A
C1523      F1530   1.358       .  S
C1524      C1525   1.407       .  A
C1525      C1526   1.390       .  A
C1525      F1532   1.355       .  S
C1526      C1527   1.394       .  A
C1526      F1531   1.358       .  S
C1527      C1528   1.405       .  A
C1528      F1529   1.359       .  S
C1533      C1534   1.412       .  A
C1533      C1538   1.402       .  A
C1533      F1540   1.357       .  S
C1534      C1535   1.411       .  A
C1535      C1536   1.409       .  A
C1535      F1542   1.357       .  S
C1536      C1537   1.407       .  A
C1536      F1541   1.357       .  S
C1537      C1538   1.402       .  A
C1538      F1539   1.354       .  S
C1543      C1544   1.415       .  A
C1543      C1548   1.402       .  A
C1543      F1550   1.356       .  S
C1544      C1545   1.418       .  A
C1545      C1546   1.400       .  A
C1545      F1552   1.358       .  S
C1546      C1547   1.399       .  A
C1546      F1551   1.357       .  S
C1547      C1548   1.401       .  A
C1548      F1549   1.358       .  S
C1553      C1554   1.418       .  A
C1553      C1558   1.404       .  A
C1553      F1560   1.357       .  S
C1554      C1555   1.414       .  A
C1555      C1556   1.391       .  A
C1555      F1562   1.354       .  S
C1556      C1557   1.406       .  A
C1556      F1561   1.356       .  S
C1557      C1558   1.400       .  A
C1558      F1559   1.357       .  S
C1563      C1564   1.417       .  A
C1563      C1568   1.410       .  A
C1563      F1570   1.355       .  S
C1564      C1565   1.420       .  A
C1565      C1566   1.414       .  A
C1565      F1572   1.357       .  S
C1566      C1567   1.405       .  A
C1566      F1571   1.357       .  S
C1567      C1568   1.405       .  A
C1568      F1569   1.357       .  S
C1573      C1574   1.404       .  A
C1573      C1578   1.372       .  A
C1573      F1580   1.356       .  S
C1574      C1575   1.396       .  A
C1575      C1576   1.394       .  A
C1575      F1582   1.357       .  S
C1576      C1577   1.405       .  A
C1576      F1581   1.358       .  S
C1577      C1578   1.394       .  A
C1578      F1579   1.354       .  S
C1583      C1584   1.434       .  A
C1583      C1588   1.444       .  A
C1583      F1590   1.355       .  S
C1584      C1585   1.426       .  A
C1585      C1586   1.444       .  A
C1585      F1592   1.356       .  S
C1586      C1587   1.427       .  A
C1586      F1591   1.356       .  S
C1587      C1588   1.421       .  A
C1588      F1589   1.357       .  S
C1593      C1594   1.400       .  A
C1593      C1598   1.403       .  A
C1593      F1600   1.358       .  S
C1594      C1595   1.409       .  A
C1595      C1596   1.407       .  A
C1595      F1602   1.357       .  S
C1596      C1597   1.411       .  A
C1596      F1601   1.357       .  S
C1597      C1598   1.421       .  A
C1598      F1599   1.358       .  S
C1603      C1604   1.428       .  A
C1603      C1608   1.440       .  A
C1603      F1610   1.352       .  S
C1604      C1605   1.433       .  A
C1605      C1606   1.439       .  A
C1605      F1612   1.352       .  S
C1606      C1607   1.422       .  A
C1606      F1611   1.357       .  S
C1607      C1608   1.433       .  A
C1608      F1609   1.355       .  S
C1613      C1614   1.440       .  A
C1613      C1618   1.438       .  A
C1613      F1620   1.347       .  S
C1614      C1615   1.428       .  A
C1615      C1616   1.442       .  A
C1615      F1622   1.352       .  S
C1616      C1617   1.436       .  A
C1616      F1621   1.351       .  S
C1617      C1618   1.418       .  A
C1618      F1619   1.357       .  S
C1623      C1624   1.398       .  A
C1623      C1628   1.389       .  A
C1623      F1630   1.358       .  S
C1624      C1625   1.403       .  A
C1625      C1626   1.399       .  A
C1625      F1632   1.358       .  S
C1626      C1627   1.410       .  A
C1626      F1631   1.358       .  S
C1627      C1628   1.411       .  A
C1628      F1629   1.358       .  S
C1633      C1634   1.401       .  A
C1633      C1638   1.396       .  A
C1633      F1640   1.357       .  S
C1634      C1635   1.403       .  A
C1635      C1636   1.397       .  A
C1635      F1642   1.357       .  S
C1636      C1637   1.406       .  A
C1636      F1641   1.358       .  S
C1637      C1638   1.406       .  A
C1638      F1639   1.357       .  S
C1643      C1644   1.407       .  A
C1643      C1648   1.395       .  A
C1643      F1650   1.356       .  S
C1644      C1645   1.395       .  A
C1645      C1646   1.388       .  A
C1645      F1652   1.358       .  S
C1646      C1647   1.409       .  A
C1646      F1651   1.358       .  S
C1647      C1648   1.402       .  A
C1648      F1649   1.357       .  S
C1653      C1654   1.402       .  A
C1653      C1658   1.401       .  A
C1653      F1660   1.358       .  S
C1654      C1655   1.408       .  A
C1655      C1656   1.397       .  A
C1655      F1662   1.356       .  S
C1656      C1657   1.406       .  A
C1656      F1661   1.356       .  S
C1657      C1658   1.410       .  A
C1658      F1659   1.358       .  S
C1663      C1664   1.402       .  A
C1663      C1668   1.387       .  A
C1663      F1670   1.358       .  S
C1664      C1665   1.410       .  A
C1665      C1666   1.381       .  A
C1665      F1672   1.359       .  S
C1666      C1667   1.393       .  A
C1666      F1671   1.359       .  S
C1667      C1668   1.403       .  A
C1668      F1669   1.354       .  S
C1673      C1674   1.403       .  A
C1673      C1678   1.405       .  A
C1673      F1680   1.356       .  S
C1674      C1675   1.404       .  A
C1675      C1676   1.405       .  A
C1675      F1682   1.357       .  S
C1676      C1677   1.413       .  A
C1676      F1681   1.358       .  S
C1677      C1678   1.413       .  A
C1678      F1679   1.358       .  S
C1683      C1684   1.407       .  A
C1683      C1688   1.401       .  A
C1683      F1690   1.357       .  S
C1684      C1685   1.405       .  A
C1685      C1686   1.395       .  A
C1685      F1692   1.357       .  S
C1686      C1687   1.402       .  A
C1686      F1691   1.357       .  S
C1687      C1688   1.404       .  A
C1688      F1689   1.357       .  S
C1693      C1694   1.425       .  A
C1693      C1698   1.413       .  A
C1693      F1700   1.357       .  S
C1694      C1695   1.416       .  A
C1695      C1696   1.411       .  A
C1695      F1702   1.353       .  S
C1696      C1697   1.407       .  A
C1696      F1701   1.358       .  S
C1697      C1698   1.404       .  A
C1698      F1699   1.357       .  S
C1703      C1704   1.397       .  A
C1703      C1708   1.392       .  A
C1703      F1710   1.358       .  S
C1704      C1705   1.405       .  A
C1705      C1706   1.402       .  A
C1705      F1712   1.356       .  S
C1706      C1707   1.409       .  A
C1706      F1711   1.358       .  S
C1707      C1708   1.411       .  A
C1708      F1709   1.358       .  S
C1713      C1714   1.415       .  A
C1713      C1718   1.391       .  A
C1713      F1720   1.358       .  S
C1714      C1715   1.410       .  A
C1715      C1716   1.393       .  A
C1715      F1722   1.357       .  S
C1716      C1717   1.402       .  A
C1716      F1721   1.357       .  S
C1717      C1718   1.396       .  A
C1718      F1719   1.357       .  S
C1723      C1724   1.412       .  A
C1723      C1728   1.401       .  A
C1723      F1730   1.348       .  S
C1724      C1725   1.418       .  A
C1725      C1726   1.404       .  A
C1725      F1732   1.353       .  S
C1726      C1727   1.409       .  A
C1726      F1731   1.358       .  S
C1727      C1728   1.416       .  A
C1728      F1729   1.354       .  S
C1733      C1734   1.410       .  A
C1733      C1738   1.410       .  A
C1733      F1740   1.357       .  S
C1734      C1735   1.416       .  A
C1735      C1736   1.408       .  A
C1735      F1742   1.357       .  S
C1736      C1737   1.404       .  A
C1736      F1741   1.358       .  S
C1737      C1738   1.409       .  A
C1738      F1739   1.357       .  S
C1743      C1744   1.406       .  A
C1743      C1748   1.389       .  A
C1743      F1750   1.358       .  S
C1744      C1745   1.406       .  A
C1745      C1746   1.380       .  A
C1745      F1752   1.359       .  S
C1746      C1747   1.398       .  A
C1746      F1751   1.358       .  S
C1747      C1748   1.395       .  A
C1748      F1749   1.357       .  S
C1753      C1754   1.418       .  A
C1753      C1758   1.391       .  A
C1753      F1760   1.358       .  S
C1754      C1755   1.412       .  A
C1755      C1756   1.407       .  A
C1755      F1762   1.357       .  S
C1756      C1757   1.407       .  A
C1756      F1761   1.357       .  S
C1757      C1758   1.396       .  A
C1758      F1759   1.358       .  S
C1763      C1764   1.407       .  A
C1763      C1768   1.388       .  A
C1763      F1770   1.354       .  S
C1764      C1765   1.409       .  A
C1765      C1766   1.409       .  A
C1765      F1772   1.357       .  S
C1766      C1767   1.405       .  A
C1766      F1771   1.357       .  S
C1767      C1768   1.400       .  A
C1768      F1769   1.358       .  S
C1773      C1774   1.404       .  A
C1773      C1778   1.399       .  A
C1773      F1780   1.358       .  S
C1774      C1775   1.394       .  A
C1775      C1776   1.379       .  A
C1775      F1782   1.356       .  S
C1776      C1777   1.417       .  A
C1776      F1781   1.359       .  S
C1777      C1778   1.408       .  A
C1778      F1779   1.357       .  S
C1783      C1784   1.419       .  A
C1783      C1788   1.438       .  A
C1783      F1790   1.357       .  S
C1784      C1785   1.426       .  A
C1785      C1786   1.445       .  A
C1785      F1792   1.356       .  S
C1786      C1787   1.428       .  A
C1786      F1791   1.356       .  S
C1787      C1788   1.432       .  A
C1788      F1789   1.355   1_455  S
C1793      C1794   1.400       .  A
C1793      C1798   1.398       .  A
C1793      F1800   1.358       .  S
C1794      C1795   1.401       .  A
C1795      C1796   1.392       .  A
C1795      F1802   1.357       .  S
C1796      C1797   1.409       .  A
C1796      F1801   1.358       .  S
C1797      C1798   1.411       .  A
C1798      F1799   1.358       .  S
C1803      C1804   1.411       .  A
C1803      C1808   1.399       .  A
C1803      F1810   1.359       .  S
C1804      C1805   1.405       .  A
C1805      C1806   1.413       .  A
C1805      F1812   1.357       .  S
C1806      C1807   1.412       .  A
C1806      F1811   1.356       .  S
C1807      C1808   1.400       .  A
C1808      F1809   1.358       .  S
C1813      C1814   1.398       .  A
C1813      C1818   1.399       .  A
C1813      F1820   1.357       .  S
C1814      C1815   1.411       .  A
C1815      C1816   1.415       .  A
C1815      F1822   1.357       .  S
C1816      C1817   1.411       .  A
C1816      F1821   1.357       .  S
C1817      C1818   1.421       .  A
C1818      F1819   1.358       .  S
C1823      C1824   1.401       .  A
C1823      C1828   1.399       .  A
C1823      F1830   1.358       .  S
C1824      C1825   1.408       .  A
C1825      C1826   1.412       .  A
C1825      F1832   1.358       .  S
C1826      C1827   1.412       .  A
C1826      F1831   1.358       .  S
C1827      C1828   1.411       .  A
C1828      F1829   1.353       .  S
C1833      C1834   1.403       .  A
C1833      C1838   1.396       .  A
C1833      F1840   1.358       .  S
C1834      C1835   1.399       .  A
C1835      C1836   1.392       .  A
C1835      F1842   1.358       .  S
C1836      C1837   1.407       .  A
C1836      F1841   1.357       .  S
C1837      C1838   1.402       .  A
C1838      F1839   1.358       .  S
C1843      C1844   1.413       .  A
C1843      C1848   1.383       .  A
C1843      F1850   1.359       .  S
C1844      C1845   1.404       .  A
C1845      C1846   1.398       .  A
C1845      F1852   1.357       .  S
C1846      C1847   1.404       .  A
C1846      F1851   1.357       .  S
C1847      C1848   1.391       .  A
C1848      F1849   1.358       .  S
C1853      C1854   1.411       .  A
C1853      C1858   1.391       .  A
C1853      F1860   1.358       .  S
C1854      C1855   1.400       .  A
C1855      C1856   1.388       .  A
C1855      F1862   1.358       .  S
C1856      C1857   1.406       .  A
C1856      F1861   1.351       .  S
C1857      C1858   1.398       .  A
C1858      F1859   1.358       .  S
C1863      C1864   1.408       .  A
C1863      C1868   1.417       .  A
C1863      F1870   1.357       .  S
C1864      C1865   1.406   1_655  A
C1865      C1866   1.417       .  A
C1865      F1872   1.357       .  S
C1866      C1867   1.423   1_455  A
C1866      F1871   1.356       .  S
C1867      C1868   1.419       .  A
C1868      F1869   1.355       .  S
C1873      C1874   1.415       .  A
C1873      C1878   1.401       .  A
C1873      F1880   1.358       .  S
C1874      C1875   1.407       .  A
C1875      C1876   1.400       .  A
C1875      F1882   1.358       .  S
C1876      C1877   1.405       .  A
C1876      F1881   1.358       .  S
C1877      C1878   1.399       .  A
C1878      F1879   1.357       .  S
C1883      C1884   1.396       .  A
C1883      C1888   1.388       .  A
C1883      F1890   1.358       .  S
C1884      C1885   1.398       .  A
C1885      C1886   1.381       .  A
C1885      F1892   1.359       .  S
C1886      C1887   1.398       .  A
C1886      F1891   1.358       .  S
C1887      C1888   1.401       .  A
C1888      F1889   1.358       .  S
C1893      C1894   1.413       .  A
C1893      C1898   1.395       .  A
C1893      F1900   1.358       .  S
C1894      C1895   1.408       .  A
C1895      C1896   1.396       .  A
C1895      F1902   1.358       .  S
C1896      C1897   1.402       .  A
C1896      F1901   1.358       .  S
C1897      C1898   1.399       .  A
C1898      F1899   1.357       .  S
C1903      C1904   1.405       .  A
C1903      C1908   1.404       .  A
C1903      F1910   1.358       .  S
C1904      C1905   1.403       .  A
C1905      C1906   1.396       .  A
C1905      F1912   1.358       .  S
C1906      C1907   1.401       .  A
C1906      F1911   1.356       .  S
C1907      C1908   1.408       .  A
C1908      F1909   1.358       .  S
C1913      C1914   1.388       .  A
C1913      C1918   1.376       .  A
C1913      F1920   1.358       .  S
C1914      C1915   1.398       .  A
C1915      C1916   1.385       .  A
C1915      F1922   1.357       .  S
C1916      C1917   1.403       .  A
C1916      F1921   1.358       .  S
C1917      C1918   1.413       .  A
C1918      F1919   1.359       .  S
C1923      C1924   1.399   1_455  A
C1923      C1928   1.397       .  A
C1923      F1930   1.357       .  S
C1924      C1925   1.405       .  A
C1925      C1926   1.396       .  A
C1925      F1932   1.354       .  S
C1926      C1927   1.410       .  A
C1926      F1931   1.356       .  S
C1927      C1928   1.411   1_655  A
C1928      F1929   1.357       .  S
C1933      C1934   1.405       .  A
C1933      C1938   1.388       .  A
C1933      F1940   1.358       .  S
C1934      C1935   1.409       .  A
C1935      C1936   1.388       .  A
C1935      F1942   1.358       .  S
C1936      C1937   1.395       .  A
C1936      F1941   1.358       .  S
C1937      C1938   1.401       .  A
C1938      F1939   1.359       .  S
C1943      C1944   1.389       .  A
C1943      C1948   1.388       .  A
C1943      F1950   1.358       .  S
C1944      C1945   1.405       .  A
C1945      C1946   1.389       .  A
C1945      F1952   1.355       .  S
C1946      C1947   1.403       .  A
C1946      F1951   1.358       .  S
C1947      C1948   1.419       .  A
C1948      F1949   1.358       .  S
C1953      C1954   1.401       .  A
C1953      C1958   1.391       .  A
C1953      F1960   1.357       .  S
C1954      C1955   1.414       .  A
C1955      C1956   1.385       .  A
C1955      F1962   1.359       .  S
C1956      C1957   1.395       .  A
C1956      F1961   1.357       .  S
C1957      C1958   1.404       .  A
C1958      F1959   1.356       .  S
C1963      C1964   1.409       .  A
C1963      C1968   1.403       .  A
C1963      F1970   1.357       .  S
C1964      C1965   1.417       .  A
C1965      C1966   1.399       .  A
C1965      F1972   1.356       .  S
C1966      C1967   1.398       .  A
C1966      F1971   1.357       .  S
C1967      C1968   1.406       .  A
C1968      F1969   1.358       .  S
C1973      C1974   1.403       .  A
C1973      C1978   1.404       .  A
C1973      F1980   1.357       .  S
C1974      C1975   1.404       .  A
C1975      C1976   1.394       .  A
C1975      F1982   1.357       .  S
C1976      C1977   1.408       .  A
C1976      F1981   1.359       .  S
C1977      C1978   1.409       .  A
C1978      F1979   1.357       .  S
C1983      C1984   1.410       .  A
C1983      C1988   1.402       .  A
C1983      F1990   1.358       .  S
C1984      C1985   1.410       .  A
C1985      C1986   1.392       .  A
C1985      F1992   1.358       .  S
C1986      C1987   1.399       .  A
C1986      F1991   1.358       .  S
C1987      C1988   1.402       .  A
C1988      F1989   1.357       .  S
C1993      C1994   1.413       .  A
C1993      C1998   1.375       .  A
C1993      F2000   1.358       .  S
C1994      C1995   1.408       .  A
C1995      C1996   1.400       .  A
C1995      F2002   1.358       .  S
C1996      C1997   1.402       .  A
C1996      F2001   1.357       .  S
C1997      C1998   1.391       .  A
C1998      F1999   1.359       .  S
C2003      C2004   1.409       .  A
C2003      C2008   1.388       .  A
C2003      F2010   1.358       .  S
C2004      C2005   1.411       .  A
C2005      C2006   1.390       .  A
C2005      F2012   1.358       .  S
C2006      C2007   1.394       .  A
C2006      F2011   1.357       .  S
C2007      C2008   1.399       .  A
C2008      F2009   1.358       .  S
C2013      C2014   1.398       .  A
C2013      C2018   1.401       .  A
C2013      F2020   1.358       .  S
C2014      C2015   1.404       .  A
C2015      C2016   1.409       .  A
C2015      F2022   1.357       .  S
C2016      C2017   1.418       .  A
C2016      F2021   1.354       .  S
C2017      C2018   1.421       .  A
C2018      F2019   1.358       .  S
C2023      C2024   1.413       .  A
C2023      C2028   1.390       .  A
C2023      F2030   1.359       .  S
C2024      C2025   1.405       .  A
C2025      C2026   1.406       .  A
C2025      F2032   1.357       .  S
C2026      C2027   1.408       .  A
C2026      F2031   1.357       .  S
C2027      C2028   1.394       .  A
C2028      F2029   1.358       .  S
C2033      C2034   1.408       .  A
C2033      C2038   1.406       .  A
C2033      F2040   1.357   1_655  S
C2034      C2035   1.391       .  A
C2035      C2036   1.387       .  A
C2035      F2042   1.358       .  S
C2036      C2037   1.418       .  A
C2036      F2041   1.357       .  S
C2037      C2038   1.404       .  A
C2038      F2039   1.357       .  S
C2043      C2044   1.410       .  A
C2043      C2048   1.407       .  A
C2043      F2050   1.358       .  S
C2044      C2045   1.406       .  A
C2045      C2046   1.410       .  A
C2045      F2052   1.357       .  S
C2046      C2047   1.411       .  A
C2046      F2051   1.357       .  S
C2047      C2048   1.404       .  A
C2048      F2049   1.357       .  S
C2053      C2054   1.404       .  A
C2053      C2058   1.385       .  A
C2053      F2060   1.359       .  S
C2054      C2055   1.396       .  A
C2055      C2056   1.384       .  A
C2055      F2062   1.358       .  S
C2056      C2057   1.407       .  A
C2056      F2061   1.351       .  S
C2057      C2058   1.399       .  A
C2058      F2059   1.359       .  S
C2063      C2064   1.403       .  A
C2063      C2068   1.390       .  A
C2063      F2070   1.358       .  S
C2064      C2065   1.404       .  A
C2065      C2066   1.377       .  A
C2065      F2072   1.359       .  S
C2066      C2067   1.400       .  A
C2066      F2071   1.356       .  S
C2067      C2068   1.402       .  A
C2068      F2069   1.358       .  S
C2073      C2074   1.410       .  A
C2073      C2078   1.390       .  A
C2073      F2080   1.358       .  S
C2074      C2075   1.415       .  A
C2075      C2076   1.396       .  A
C2075      F2082   1.358       .  S
C2076      C2077   1.397       .  A
C2076      F2081   1.358       .  S
C2077      C2078   1.399       .  A
C2078      F2079   1.358       .  S
C2083      C2084   1.407       .  A
C2083      C2088   1.399       .  A
C2083      F2090   1.357       .  S
C2084      C2085   1.407       .  A
C2085      C2086   1.376       .  A
C2085      F2092   1.360       .  S
C2086      C2087   1.400       .  A
C2086      F2091   1.352       .  S
C2087      C2088   1.403       .  A
C2088      F2089   1.357       .  S
C2093      C2094   1.404       .  A
C2093      C2098   1.392       .  A
C2093      F2100   1.358       .  S
C2094      C2095   1.401       .  A
C2095      C2096   1.402       .  A
C2095      F2102   1.357       .  S
C2096      C2097   1.412       .  A
C2096      F2101   1.356       .  S
C2097      C2098   1.401       .  A
C2098      F2099   1.357       .  S
C2103      C2104   1.416       .  A
C2103      C2108   1.403       .  A
C2103      F2110   1.358       .  S
C2104      C2105   1.413       .  A
C2105      C2106   1.423       .  A
C2105      F2112   1.355       .  S
C2106      C2107   1.424       .  A
C2106      F2111   1.356       .  S
C2107      C2108   1.420       .  A
C2108      F2109   1.345       .  S
C2113      C2114   1.411       .  A
C2113      C2118   1.401       .  A
C2113      F2120   1.354       .  S
C2114      C2115   1.422       .  A
C2115      C2116   1.393       .  A
C2115      F2122   1.357       .  S
C2116      C2117   1.398       .  A
C2116      F2121   1.358       .  S
C2117      C2118   1.409       .  A
C2118      F2119   1.357       .  S
C2123      C2124   1.407       .  A
C2123      C2128   1.403       .  A
C2123      F2130   1.357       .  S
C2124      C2125   1.409       .  A
C2125      C2126   1.402       .  A
C2125      F2132   1.357       .  S
C2126      C2127   1.403       .  A
C2126      F2131   1.356       .  S
C2127      C2128   1.406       .  A
C2128      F2129   1.357       .  S
C2133      C2134   1.404       .  A
C2133      C2138   1.395       .  A
C2133      F2140   1.354       .  S
C2134      C2135   1.417       .  A
C2135      C2136   1.410       .  A
C2135      F2142   1.357       .  S
C2136      C2137   1.409       .  A
C2136      F2141   1.355       .  S
C2137      C2138   1.410       .  A
C2138      F2139   1.354       .  S
C2143      C2144   1.409       .  A
C2143      C2148   1.407       .  A
C2143      F2150   1.357       .  S
C2144      C2145   1.419       .  A
C2145      C2146   1.406       .  A
C2145      F2152   1.356       .  S
C2146      C2147   1.401       .  A
C2146      F2151   1.358   1_556  S
C2147      C2148   1.408       .  A
C2148      F2149   1.358       .  S
C2153      C2154   1.405       .  A
C2153      C2158   1.402       .  A
C2153      F2160   1.357       .  S
C2154      C2155   1.404       .  A
C2155      C2156   1.400       .  A
C2155      F2162   1.357       .  S
C2156      C2157   1.404       .  A
C2156      F2161   1.357       .  S
C2157      C2158   1.404       .  A
C2158      F2159   1.356       .  S
C2163      C2164   1.404       .  A
C2163      C2168   1.410       .  A
C2163      F2170   1.356       .  S
C2164      C2165   1.409       .  A
C2165      C2166   1.399       .  A
C2165      F2172   1.354       .  S
C2166      C2167   1.405       .  A
C2166      F2171   1.358       .  S
C2167      C2168   1.411       .  A
C2168      F2169   1.356   1_556  S
C2173      C2174   1.405       .  A
C2173      C2178   1.417       .  A
C2173      F2180   1.358       .  S
C2174      C2175   1.414       .  A
C2175      C2176   1.426       .  A
C2175      F2182   1.357       .  S
C2176      C2177   1.422       .  A
C2176      F2181   1.355       .  S
C2177      C2178   1.430       .  A
C2178      F2179   1.351       .  S
C2183      C2184   1.412       .  A
C2183      C2188   1.405       .  A
C2183      F2190   1.357       .  S
C2184      C2185   1.409       .  A
C2185      C2186   1.408       .  A
C2185      F2192   1.357       .  S
C2186      C2187   1.407       .  A
C2186      F2191   1.356       .  S
C2187      C2188   1.402       .  A
C2188      F2189   1.357       .  S
C2193      C2194   1.422       .  A
C2193      C2198   1.406       .  A
C2193      F2200   1.355       .  S
C2194      C2195   1.421       .  A
C2195      C2196   1.404       .  A
C2195      F2202   1.355       .  S
C2196      C2197   1.402       .  A
C2196      F2201   1.358       .  S
C2197      C2198   1.400       .  A
C2198      F2199   1.357       .  S
C2203      C2204   1.399       .  A
C2203      C2208   1.401       .  A
C2203      F2210   1.358       .  S
C2204      C2205   1.410       .  A
C2205      C2206   1.408       .  A
C2205      F2212   1.358       .  S
C2206      C2207   1.409       .  A
C2206      F2211   1.357       .  S
C2207      C2208   1.418       .  A
C2208      F2209   1.356       .  S
C2213      C2214   1.417       .  A
C2213      C2218   1.425       .  A
C2213      F2220   1.356       .  S
C2214      C2215   1.408       .  A
C2215      C2216   1.416       .  A
C2215      F2222   1.357       .  S
C2216      C2217   1.415       .  A
C2216      F2221   1.358       .  S
C2217      C2218   1.414       .  A
C2218      F2219   1.357       .  S
C2223      C2224   1.403       .  A
C2223      C2228   1.387       .  A
C2223      F2230   1.358       .  S
C2224      C2225   1.403       .  A
C2225      C2226   1.382       .  A
C2225      F2232   1.359       .  S
C2226      C2227   1.398       .  A
C2226      F2231   1.358       .  S
C2227      C2228   1.399       .  A
C2228      F2229   1.358       .  S
C2233      C2234   1.402       .  A
C2233      C2238   1.404       .  A
C2233      F2240   1.358       .  S
C2234      C2235   1.404       .  A
C2235      C2236   1.406       .  A
C2235      F2242   1.357       .  S
C2236      C2237   1.412       .  A
C2236      F2241   1.356       .  S
C2237      C2238   1.418       .  A
C2238      F2239   1.357       .  S
C2243      C2244   1.410       .  A
C2243      C2248   1.424       .  A
C2243      F2250   1.357       .  S
C2244      C2245   1.414       .  A
C2245      C2246   1.428       .  A
C2245      F2252   1.357       .  S
C2246      C2247   1.426       .  A
C2246      F2251   1.357       .  S
C2247      C2248   1.425       .  A
C2248      F2249   1.354       .  S
C2253      C2254   1.397       .  A
C2253      C2258   1.392       .  A
C2253      F2260   1.358       .  S
C2254      C2255   1.404       .  A
C2255      C2256   1.404       .  A
C2255      F2262   1.357       .  S
C2256      C2257   1.410       .  A
C2256      F2261   1.357       .  S
C2257      C2258   1.415       .  A
C2258      F2259   1.358       .  S
C2263      C2264   1.400       .  A
C2263      C2268   1.398       .  A
C2263      F2270   1.357       .  S
C2264      C2265   1.397       .  A
C2265      C2266   1.381       .  A
C2265      F2272   1.354       .  S
C2266      C2267   1.404       .  A
C2266      F2271   1.359       .  S
C2267      C2268   1.407       .  A
C2268      F2269   1.358       .  S
C2273      C2274   1.399       .  A
C2273      C2278   1.391       .  A
C2273      F2280   1.358       .  S
C2274      C2275   1.406       .  A
C2275      C2276   1.379       .  A
C2275      F2282   1.354       .  S
C2276      C2277   1.390       .  A
C2276      F2281   1.359       .  S
C2277      C2278   1.401       .  A
C2278      F2279   1.358       .  S
C2283      C2284   1.408       .  A
C2283      C2288   1.405       .  A
C2283      F2290   1.354       .  S
C2284      C2285   1.397       .  A
C2285      C2286   1.401       .  A
C2285      F2292   1.358       .  S
C2286      C2287   1.421       .  A
C2286      F2291   1.357       .  S
C2287      C2288   1.414       .  A
C2288      F2289   1.354       .  S
C2293      C2294   1.406       .  A
C2293      C2298   1.407       .  A
C2293      F2300   1.357       .  S
C2294      C2295   1.414       .  A
C2295      C2296   1.413       .  A
C2295      F2302   1.355       .  S
C2296      C2297   1.412       .  A
C2296      F2301   1.357       .  S
C2297      C2298   1.412       .  A
C2298      F2299   1.357       .  S
C2303      C2304   1.393       .  A
C2303      C2308   1.379       .  A
C2303      F2310   1.359       .  S
C2304      C2305   1.400       .  A
C2305      C2306   1.382       .  A
C2305      F2312   1.353       .  S
C2306      C2307   1.397       .  A
C2306      F2311   1.358       .  S
C2307      C2308   1.405       .  A
C2308      F2309   1.359       .  S
C2313      C2314   1.404       .  A
C2313      C2318   1.404       .  A
C2313      F2320   1.357       .  S
C2314      C2315   1.410       .  A
C2315      C2316   1.415       .  A
C2315      F2322   1.356       .  S
C2316      C2317   1.411       .  A
C2316      F2321   1.357       .  S
C2317      C2318   1.415       .  A
C2318      F2319   1.358       .  S
C2323      C2324   1.401       .  A
C2323      C2328   1.392       .  A
C2323      F2330   1.355       .  S
C2324      C2325   1.401       .  A
C2325      C2326   1.390       .  A
C2325      F2332   1.358       .  S
C2326      C2327   1.402       .  A
C2326      F2331   1.358       .  S
C2327      C2328   1.402       .  A
C2328      F2329   1.358       .  S
C2333      C2334   1.404       .  A
C2333      C2338   1.401       .  A
C2333      F2340   1.357       .  S
C2334      C2335   1.407       .  A
C2335      C2336   1.400       .  A
C2335      F2342   1.358       .  S
C2336      C2337   1.405       .  A
C2336      F2341   1.358       .  S
C2337      C2338   1.404       .  A
C2338      F2339   1.356       .  S
C2343      C2344   1.420       .  A
C2343      C2348   1.413       .  A
C2343      F2350   1.356       .  S
C2344      C2345   1.418       .  A
C2345      C2346   1.416       .  A
C2345      F2352   1.357       .  S
C2346      C2347   1.409       .  A
C2346      F2351   1.357       .  S
C2347      C2348   1.407       .  A
C2348      F2349   1.355       .  S
C2353      C2354   1.407       .  A
C2353      C2358   1.405       .  A
C2353      F2360   1.357       .  S
C2354      C2355   1.410       .  A
C2355      C2356   1.391       .  A
C2355      F2362   1.358       .  S
C2356      C2357   1.398       .  A
C2356      F2361   1.358       .  S
C2357      C2358   1.406       .  A
C2358      F2359   1.357       .  S
C2363      C2364   1.399       .  A
C2363      C2368   1.386       .  A
C2363      F2370   1.355       .  S
C2364      C2365   1.406       .  A
C2365      C2366   1.389       .  A
C2365      F2372   1.358       .  S
C2366      C2367   1.398       .  A
C2366      F2371   1.358       .  S
C2367      C2368   1.403       .  A
C2368      F2369   1.359       .  S
C2373      C2374   1.406       .  A
C2373      C2378   1.398       .  A
C2373      F2380   1.354       .  S
C2374      C2375   1.399       .  A
C2375      C2376   1.394       .  A
C2375      F2382   1.358       .  S
C2376      C2377   1.412       .  A
C2376      F2381   1.356       .  S
C2377      C2378   1.398       .  A
C2378      F2379   1.352       .  S
C2383      C2384   1.415       .  A
C2383      C2388   1.407       .  A
C2383      F2390   1.353       .  S
C2384      C2385   1.419       .  A
C2385      C2386   1.421       .  A
C2385      F2392   1.357       .  S
C2386      C2387   1.419       .  A
C2386      F2391   1.356       .  S
C2387      C2388   1.411       .  A
C2388      F2389   1.356       .  S
C2393      C2394   1.410       .  A
C2393      C2398   1.417       .  A
C2393      F2400   1.357       .  S
C2394      C2395   1.411       .  A
C2395      C2396   1.412       .  A
C2395      F2402   1.357       .  S
C2396      C2397   1.409       .  A
C2396      F2401   1.357       .  S
C2397      C2398   1.413       .  A
C2398      F2399   1.357       .  S
C2403      C2404   1.403       .  A
C2403      C2408   1.374       .  A
C2403      F2410   1.359       .  S
C2404      C2405   1.409       .  A
C2405      C2406   1.385       .  A
C2405      F2412   1.358       .  S
C2406      C2407   1.392       .  A
C2406      F2411   1.358       .  S
C2407      C2408   1.399       .  A
C2408      F2409   1.359       .  S
C2413      C2414   1.413       .  A
C2413      C2418   1.395       .  A
C2413      F2420   1.356       .  S
C2414      C2415   1.405       .  A
C2415      C2416   1.406       .  A
C2415      F2422   1.357       .  S
C2416      C2417   1.410       .  A
C2416      F2421   1.353       .  S
C2417      C2418   1.398       .  A
C2418      F2419   1.357       .  S
C2423      C2424   1.398       .  A
C2423      C2428   1.402       .  A
C2423      F2430   1.358       .  S
C2424      C2425   1.403       .  A
C2425      C2426   1.401       .  A
C2425      F2432   1.359       .  S
C2426      C2427   1.417       .  A
C2426      F2431   1.353       .  S
C2427      C2428   1.419       .  A
C2428      F2429   1.357       .  S
C2433      C2434   1.404       .  A
C2433      C2438   1.389       .  A
C2433      F2440   1.358       .  S
C2434      C2435   1.400       .  A
C2435      C2436   1.397       .  A
C2435      F2442   1.357       .  S
C2436      C2437   1.405       .  A
C2436      F2441   1.356       .  S
C2437      C2438   1.402       .  A
C2438      F2439   1.354       .  S
C2443      C2444   1.409       .  A
C2443      C2448   1.407       .  A
C2443      F2450   1.357       .  S
C2444      C2445   1.410       .  A
C2445      C2446   1.397       .  A
C2445      F2452   1.357   1_554  S
C2446      C2447   1.400       .  A
C2446      F2451   1.357   1_554  S
C2447      C2448   1.409       .  A
C2448      F2449   1.356       .  S
C2453      C2454   1.399       .  A
C2453      C2458   1.382       .  A
C2453      F2460   1.358       .  S
C2454      C2455   1.408       .  A
C2455      C2456   1.396       .  A
C2455      F2462   1.358       .  S
C2456      C2457   1.400       .  A
C2456      F2461   1.357       .  S
C2457      C2458   1.408       .  A
C2458      F2459   1.354   1_655  S
C2463      C2464   1.417       .  A
C2463      C2468   1.417       .  A
C2463      F2470   1.354       .  S
C2464      C2465   1.423       .  A
C2465      C2466   1.414       .  A
C2465      F2472   1.357       .  S
C2466      C2467   1.404       .  A
C2466      F2471   1.357       .  S
C2467      C2468   1.411       .  A
C2468      F2469   1.358       .  S
C2473      C2474   1.409       .  A
C2473      C2478   1.411       .  A
C2473      F2480   1.357       .  S
C2474      C2475   1.408       .  A
C2475      C2476   1.411       .  A
C2475      F2482   1.357       .  S
C2476      C2477   1.408       .  A
C2476      F2481   1.357       .  S
C2477      C2478   1.410       .  A
C2478      F2479   1.356       .  S
C2483      C2484   1.408   1_655  A
C2483      C2488   1.408       .  A
C2483      F2490   1.357   1_655  S
C2484      C2485   1.403   1_455  A
C2485      C2486   1.393       .  A
C2485      F2492   1.358       .  S
C2486      C2487   1.409       .  A
C2486      F2491   1.358       .  S
C2487      C2488   1.407       .  A
C2488      F2489   1.357       .  S
C2493      C2494   1.434       .  A
C2493      C2498   1.419       .  A
C2493      F2500   1.356       .  S
C2494      C2495   1.419       .  A
C2495      C2496   1.436       .  A
C2495      F2502   1.356       .  S
C2496      C2497   1.436       .  A
C2496      F2501   1.351       .  S
C2497      C2498   1.407       .  A
C2498      F2499   1.357       .  S
C2503      C2504   1.422       .  A
C2503      C2508   1.432       .  A
C2503      F2510   1.356       .  S
C2504      C2505   1.423       .  A
C2505      C2506   1.425       .  A
C2505      F2512   1.356       .  S
C2506      C2507   1.411       .  A
C2506      F2511   1.356       .  S
C2507      C2508   1.418       .  A
C2508      F2509   1.356       .  S
C2513      C2514   1.404       .  A
C2513      C2518   1.398       .  A
C2513      F2520   1.357       .  S
C2514      C2515   1.410       .  A
C2515      C2516   1.375       .  A
C2515      F2522   1.358       .  S
C2516      C2517   1.396       .  A
C2516      F2521   1.358       .  S
C2517      C2518   1.403       .  A
C2518      F2519   1.357       .  S
C2523      C2524   1.433       .  A
C2523      C2528   1.449       .  A
C2523      F2530   1.356       .  S
C2524      C2525   1.437       .  A
C2525      C2526   1.447       .  A
C2525      F2532   1.354       .  S
C2526      C2527   1.424       .  A
C2526      F2531   1.357       .  S
C2527      C2528   1.426       .  A
C2528      F2529   1.356       .  S
C2533      C2534   1.398       .  A
C2533      C2538   1.393       .  A
C2533      F2540   1.357       .  S
C2534      C2535   1.393       .  A
C2535      C2536   1.379       .  A
C2535      F2542   1.358       .  S
C2536      C2537   1.413       .  A
C2536      F2541   1.360       .  S
C2537      C2538   1.408       .  A
C2538      F2539   1.357       .  S
C2543      C2544   1.409       .  A
C2543      C2548   1.391       .  A
C2543      F2550   1.358       .  S
C2544      C2545   1.407       .  A
C2545      C2546   1.390       .  A
C2545      F2552   1.358       .  S
C2546      C2547   1.398       .  A
C2546      F2551   1.357       .  S
C2547      C2548   1.398       .  A
C2548      F2549   1.358       .  S
C2553      C2554   1.430       .  A
C2553      C2558   1.444       .  A
C2553      F2560   1.347       .  S
C2554      C2555   1.439       .  A
C2555      C2556   1.447       .  A
C2555      F2562   1.357       .  S
C2556      C2557   1.420       .  A
C2556      F2561   1.356       .  S
C2557      C2558   1.426       .  A
C2558      F2559   1.356       .  S
C2563      C2564   1.420       .  A
C2563      C2568   1.439       .  A
C2563      F2570   1.357       .  S
C2564      C2565   1.416       .  A
C2565      C2566   1.437       .  A
C2565      F2572   1.357       .  S
C2566      C2567   1.431       .  A
C2566      F2571   1.356       .  S
C2567      C2568   1.429       .  A
C2568      F2569   1.351       .  S
C2573      C2574   1.397       .  A
C2573      C2578   1.382       .  A
C2573      F2580   1.358       .  S
C2574      C2575   1.398       .  A
C2575      C2576   1.381       .  A
C2575      F2582   1.359       .  S
C2576      C2577   1.400       .  A
C2576      F2581   1.359       .  S
C2577      C2578   1.396       .  A
C2578      F2579   1.357       .  S
C2583      C2584   1.403       .  A
C2583      C2588   1.400       .  A
C2583      F2590   1.357       .  S
C2584      C2585   1.407       .  A
C2585      C2586   1.404       .  A
C2585      F2592   1.357       .  S
C2586      C2587   1.407       .  A
C2586      F2591   1.358       .  S
C2587      C2588   1.406       .  A
C2588      F2589   1.358       .  S
C2593      C2594   1.403       .  A
C2593      C2598   1.390       .  A
C2593      F2600   1.357       .  S
C2594      C2595   1.402       .  A
C2595      C2596   1.396       .  A
C2595      F2602   1.357       .  S
C2596      C2597   1.405       .  A
C2596      F2601   1.358       .  S
C2597      C2598   1.401       .  A
C2598      F2599   1.358       .  S
C2603      C2604   1.405       .  A
C2603      C2608   1.399       .  A
C2603      F2610   1.357       .  S
C2604      C2605   1.404       .  A
C2605      C2606   1.395       .  A
C2605      F2612   1.358       .  S
C2606      C2607   1.401       .  A
C2606      F2611   1.357       .  S
C2607      C2608   1.402       .  A
C2608      F2609   1.357       .  S
C2613      C2614   1.405       .  A
C2613      C2618   1.408       .  A
C2613      F2620   1.358       .  S
C2614      C2615   1.403       .  A
C2615      C2616   1.412       .  A
C2615      F2622   1.357       .  S
C2616      C2617   1.422       .  A
C2616      F2621   1.351       .  S
C2617      C2618   1.419       .  A
C2618      F2619   1.357       .  S
C2623      C2624   1.403       .  A
C2623      C2628   1.397       .  A
C2623      F2630   1.358       .  S
C2624      C2625   1.402       .  A
C2625      C2626   1.398       .  A
C2625      F2632   1.358       .  S
C2626      C2627   1.404       .  A
C2626      F2631   1.357       .  S
C2627      C2628   1.403       .  A
C2628      F2629   1.357       .  S
C2633      C2634   1.395       .  A
C2633      C2638   1.388       .  A
C2633      F2640   1.358       .  S
C2634      C2635   1.403       .  A
C2635      C2636   1.382       .  A
C2635      F2642   1.358       .  S
C2636      C2637   1.398       .  A
C2636      F2641   1.359       .  S
C2637      C2638   1.404       .  A
C2638      F2639   1.358       .  S
C2643      C2644   1.406       .  A
C2643      C2648   1.384       .  A
C2643      F2650   1.354       .  S
C2644      C2645   1.401       .  A
C2645      C2646   1.390       .  A
C2645      F2652   1.357       .  S
C2646      C2647   1.402       .  A
C2646      F2651   1.358       .  S
C2647      C2648   1.396       .  A
C2648      F2649   1.359       .  S
C2653      C2654   1.404       .  A
C2653      C2658   1.402       .  A
C2653      F2660   1.357       .  S
C2654      C2655   1.403       .  A
C2655      C2656   1.399       .  A
C2655      F2662   1.357       .  S
C2656      C2657   1.404       .  A
C2656      F2661   1.357       .  S
C2657      C2658   1.405       .  A
C2658      F2659   1.358       .  S
C2663      C2664   1.399       .  A
C2663      C2668   1.387       .  A
C2663      F2670   1.358       .  S
C2664      C2665   1.409       .  A
C2665      C2666   1.397       .  A
C2665      F2672   1.356       .  S
C2666      C2667   1.398       .  A
C2666      F2671   1.357       .  S
C2667      C2668   1.405       .  A
C2668      F2669   1.358       .  S
C2673      C2674   1.401       .  A
C2673      C2678   1.375       .  A
C2673      F2680   1.359       .  S
C2674      C2675   1.400       .  A
C2675      C2676   1.385       .  A
C2675      F2682   1.358       .  S
C2676      C2677   1.397       .  A
C2676      F2681   1.357       .  S
C2677      C2678   1.393       .  A
C2678      F2679   1.359       .  S
C2683      C2684   1.399       .  A
C2683      C2688   1.386       .  A
C2683      F2690   1.356       .  S
C2684      C2685   1.404       .  A
C2685      C2686   1.394       .  A
C2685      F2692   1.357       .  S
C2686      C2687   1.400       .  A
C2686      F2691   1.358       .  S
C2687      C2688   1.402       .  A
C2688      F2689   1.359       .  S
C2693      C2694   1.405       .  A
C2693      C2698   1.405       .  A
C2693      F2700   1.358       .  S
C2694      C2695   1.404       .  A
C2695      C2696   1.409       .  A
C2695      F2702   1.357       .  S
C2696      C2697   1.415       .  A
C2696      F2701   1.357       .  S
C2697      C2698   1.416       .  A
C2698      F2699   1.358       .  S
C2703      C2704   1.415       .  A
C2703      C2708   1.397       .  A
C2703      F2710   1.356       .  S
C2704      C2705   1.414       .  A
C2705      C2706   1.399       .  A
C2705      F2712   1.357       .  S
C2706      C2707   1.400       .  A
C2706      F2711   1.358       .  S
C2707      C2708   1.399       .  A
C2708      F2709   1.357       .  S
C2713      C2714   1.402       .  A
C2713      C2718   1.403       .  A
C2713      F2720   1.357       .  S
C2714      C2715   1.404       .  A
C2715      C2716   1.402       .  A
C2715      F2722   1.358       .  S
C2716      C2717   1.412       .  A
C2716      F2721   1.356       .  S
C2717      C2718   1.413       .  A
C2718      F2719   1.357       .  S
C2723      C2724   1.402       .  A
C2723      C2728   1.398       .  A
C2723      F2730   1.357       .  S
C2724      C2725   1.398       .  A
C2725      C2726   1.390       .  A
C2725      F2732   1.358       .  S
C2726      C2727   1.410       .  A
C2726      F2731   1.358       .  S
C2727      C2728   1.407       .  A
C2728      F2729   1.358       .  S
C2733      C2734   1.405       .  A
C2733      C2738   1.408       .  A
C2733      F2740   1.357       .  S
C2734      C2735   1.405       .  A
C2735      C2736   1.404       .  A
C2735      F2742   1.355   1_554  S
C2736      C2737   1.411       .  A
C2736      F2741   1.357       .  S
C2737      C2738   1.413       .  A
C2738      F2739   1.357       .  S
C2743      C2744   1.417       .  A
C2743      C2748   1.415       .  A
C2743      F2750   1.357       .  S
C2744      C2745   1.404       .  A
C2745      C2746   1.405       .  A
C2745      F2752   1.355       .  S
C2746      C2747   1.422       .  A
C2746      F2751   1.353       .  S
C2747      C2748   1.412       .  A
C2748      F2749   1.350       .  S
C2753      C2754   1.409       .  A
C2753      C2758   1.416       .  A
C2753      F2760   1.357       .  S
C2754      C2755   1.403       .  A
C2755      C2756   1.409       .  A
C2755      F2762   1.358       .  S
C2756      C2757   1.423       .  A
C2756      F2761   1.358   1_556  S
C2757      C2758   1.418       .  A
C2758      F2759   1.354       .  S
C2763      C2764   1.417       .  A
C2763      C2768   1.407       .  A
C2763      F2770   1.356       .  S
C2764      C2765   1.415       .  A
C2765      C2766   1.415       .  A
C2765      F2772   1.357       .  S
C2766      C2767   1.408       .  A
C2766      F2771   1.357       .  S
C2767      C2768   1.403       .  A
C2768      F2769   1.356       .  S
C2773      C2774   1.416       .  A
C2773      C2778   1.404       .  A
C2773      F2780   1.358       .  S
C2774      C2775   1.418       .  A
C2775      C2776   1.398       .  A
C2775      F2782   1.347       .  S
C2776      C2777   1.401       .  A
C2776      F2781   1.358       .  S
C2777      C2778   1.410       .  A
C2778      F2779   1.356       .  S
C2783      C2784   1.425       .  A
C2783      C2788   1.422       .  A
C2783      F2790   1.354       .  S
C2784      C2785   1.423       .  A
C2785      C2786   1.432       .  A
C2785      F2792   1.357       .  S
C2786      C2787   1.420       .  A
C2786      F2791   1.357       .  S
C2787      C2788   1.414       .  A
C2788      F2789   1.357       .  S
C2793      C2794   1.414       .  A
C2793      C2798   1.406   1_556  A
C2793      F2800   1.357       .  S
C2794      C2795   1.412   1_556  A
C2795      C2796   1.406       .  A
C2795      F2802   1.357       .  S
C2796      C2797   1.406       .  A
C2796      F2801   1.354       .  S
C2797      C2798   1.405       .  A
C2798      F2799   1.357       .  S
C2803      C2804   1.421       .  A
C2803      C2808   1.422       .  A
C2803      F2810   1.355       .  S
C2804      C2805   1.424       .  A
C2805      C2806   1.419       .  A
C2805      F2812   1.356       .  S
C2806      C2807   1.406       .  A
C2806      F2811   1.357       .  S
C2807      C2808   1.412       .  A
C2808      F2809   1.357       .  S
C2813      C2814   1.409       .  A
C2813      C2818   1.397       .  A
C2813      F2820   1.358       .  S
C2814      C2815   1.412       .  A
C2815      C2816   1.389       .  A
C2815      F2822   1.347       .  S
C2816      C2817   1.393       .  A
C2816      F2821   1.358       .  S
C2817      C2818   1.398       .  A
C2818      F2819   1.357       .  S
C2823      C2824   1.406       .  A
C2823      C2828   1.407       .  A
C2823      F2830   1.357       .  S
C2824      C2825   1.400       .  A
C2825      C2826   1.391       .  A
C2825      F2832   1.356       .  S
C2826      C2827   1.406       .  A
C2826      F2831   1.358       .  S
C2827      C2828   1.411       .  A
C2828      F2829   1.358       .  S
C2833      C2834   1.399       .  A
C2833      C2838   1.392       .  A
C2833      F2840   1.358       .  S
C2834      C2835   1.402       .  A
C2835      C2836   1.387       .  A
C2835      F2842   1.358       .  S
C2836      C2837   1.396       .  A
C2836      F2841   1.356       .  S
C2837      C2838   1.402       .  A
C2838      F2839   1.357       .  S
C2843      C2844   1.410       .  A
C2843      C2848   1.417       .  A
C2843      F2850   1.357       .  S
C2844      C2845   1.403       .  A
C2845      C2846   1.412       .  A
C2845      F2852   1.357       .  S
C2846      C2847   1.426       .  A
C2846      F2851   1.357       .  S
C2847      C2848   1.417       .  A
C2848      F2849   1.354       .  S
C2853      C2854   1.419       .  A
C2853      C2858   1.415       .  A
C2853      F2860   1.357       .  S
C2854      C2855   1.412       .  A
C2855      C2856   1.422       .  A
C2855      F2862   1.356       .  S
C2856      C2857   1.415       .  A
C2856      F2861   1.357       .  S
C2857      C2858   1.408       .  A
C2858      F2859   1.357       .  S
C2863      C2864   1.397       .  A
C2863      C2868   1.390       .  A
C2863      F2870   1.358       .  S
C2864      C2865   1.402       .  A
C2865      C2866   1.393       .  A
C2865      F2872   1.357       .  S
C2866      C2867   1.403       .  A
C2866      F2871   1.358       .  S
C2867      C2868   1.404       .  A
C2868      F2869   1.357       .  S
C2873      C2874   1.403       .  A
C2873      C2878   1.396       .  A
C2873      F2880   1.357       .  S
C2874      C2875   1.404       .  A
C2875      C2876   1.399       .  A
C2875      F2882   1.357       .  S
C2876      C2877   1.403       .  A
C2876      F2881   1.358       .  S
C2877      C2878   1.406       .  A
C2878      F2879   1.358       .  S
C2883      C2884   1.410       .  A
C2883      C2888   1.410       .  A
C2883      F2890   1.358       .  S
C2884      C2885   1.406       .  A
C2885      C2886   1.399       .  A
C2885      F2892   1.357       .  S
C2886      C2887   1.406       .  A
C2886      F2891   1.358       .  S
C2887      C2888   1.411       .  A
C2888      F2889   1.358       .  S
C2893      C2894   1.410       .  A
C2893      C2898   1.412       .  A
C2893      F2900   1.357       .  S
C2894      C2895   1.410       .  A
C2895      C2896   1.406       .  A
C2895      F2902   1.357       .  S
C2896      C2897   1.404       .  A
C2896      F2901   1.357       .  S
C2897      C2898   1.409       .  A
C2898      F2899   1.357       .  S
C2903      C2904   1.408       .  A
C2903      C2908   1.405       .  A
C2903      F2910   1.356       .  S
C2904      C2905   1.408       .  A
C2905      C2906   1.407       .  A
C2905      F2912   1.356       .  S
C2906      C2907   1.420       .  A
C2906      F2911   1.358       .  S
C2907      C2908   1.416       .  A
C2908      F2909   1.348       .  S
C2913      C2914   1.405       .  A
C2913      C2918   1.398       .  A
C2913      F2920   1.358       .  S
C2914      C2915   1.400       .  A
C2915      C2916   1.390       .  A
C2915      F2922   1.358       .  S
C2916      C2917   1.404       .  A
C2916      F2921   1.358       .  S
C2917      C2918   1.401       .  A
C2918      F2919   1.357       .  S
C2923      C2924   1.408       .  A
C2923      C2928   1.402       .  A
C2923      F2930   1.357       .  S
C2924      C2925   1.412       .  A
C2925      C2926   1.396       .  A
C2925      F2932   1.354       .  S
C2926      C2927   1.400       .  A
C2926      F2931   1.357       .  S
C2927      C2928   1.408       .  A
C2928      F2929   1.355       .  S
C2933      C2934   1.397       .  A
C2933      C2938   1.381       .  A
C2933      F2940   1.359       .  S
C2934      C2935   1.401       .  A
C2935      C2936   1.392       .  A
C2935      F2942   1.356       .  S
C2936      C2937   1.398       .  A
C2936      F2941   1.356       .  S
C2937      C2938   1.406       .  A
C2938      F2939   1.357       .  S
C2943      C2944   1.432       .  A
C2943      C2948   1.429       .  A
C2943      F2950   1.354       .  S
C2944      C2945   1.424       .  A
C2945      C2946   1.434       .  A
C2945      F2952   1.356       .  S
C2946      C2947   1.417       .  A
C2946      F2951   1.357       .  S
C2947      C2948   1.412       .  A
C2948      F2949   1.356       .  S
C2953      C2954   1.408       .  A
C2953      C2958   1.406       .  A
C2953      F2960   1.355       .  S
C2954      C2955   1.411       .  A
C2955      C2956   1.408       .  A
C2955      F2962   1.355       .  S
C2956      C2957   1.405       .  A
C2956      F2961   1.357       .  S
C2957      C2958   1.409       .  A
C2958      F2959   1.358       .  S
C2963      C2964   1.399       .  A
C2963      C2968   1.395       .  A
C2963      F2970   1.358       .  S
C2964      C2965   1.401       .  A
C2965      C2966   1.396       .  A
C2965      F2972   1.358       .  S
C2966      C2967   1.411       .  A
C2966      F2971   1.358       .  S
C2967      C2968   1.415       .  A
C2968      F2969   1.358       .  S
C2973      C2974   1.415       .  A
C2973      C2978   1.433       .  A
C2973      F2980   1.357       .  S
C2974      C2975   1.410       .  A
C2975      C2976   1.428       .  A
C2975      F2982   1.357       .  S
C2976      C2977   1.427       .  A
C2976      F2981   1.352       .  S
C2977      C2978   1.433       .  A
C2978      F2979   1.354       .  S
C2983      C2984   1.406       .  A
C2983      C2988   1.417       .  A
C2983      F2990   1.357       .  S
C2984      C2985   1.411       .  A
C2985      C2986   1.421       .  A
C2985      F2992   1.356       .  S
C2986      C2987   1.424       .  A
C2986      F2991   1.355       .  S
C2987      C2988   1.423       .  A
C2988      F2989   1.354       .  S
C2993      C2994   1.401       .  A
C2993      C2998   1.397       .  A
C2993      F3000   1.358       .  S
C2994      C2995   1.399       .  A
C2995      C2996   1.389       .  A
C2995      F3002   1.357       .  S
C2996      C2997   1.401       .  A
C2996      F3001   1.358       .  S
C2997      C2998   1.406       .  A
C2998      F2999   1.358       .  S
C3003      C3004   1.401       .  A
C3003      C3008   1.400       .  A
C3003      F3010   1.357       .  S
C3004      C3005   1.403       .  A
C3005      C3006   1.392       .  A
C3005      F3012   1.357       .  S
C3006      C3007   1.402       .  A
C3006      F3011   1.358       .  S
C3007      C3008   1.408       .  A
C3008      F3009   1.358       .  S
C3013      C3014   1.404       .  A
C3013      C3018   1.387       .  A
C3013      F3020   1.359       .  S
C3014      C3015   1.401       .  A
C3015      C3016   1.392       .  A
C3015      F3022   1.357       .  S
C3016      C3017   1.402       .  A
C3016      F3021   1.358       .  S
C3017      C3018   1.399       .  A
C3018      F3019   1.357       .  S
C3023      C3024   1.402       .  A
C3023      C3028   1.390       .  A
C3023      F3030   1.357       .  S
C3024      C3025   1.401       .  A
C3025      C3026   1.392       .  A
C3025      F3032   1.358       .  S
C3026      C3027   1.399       .  A
C3026      F3031   1.357       .  S
C3027      C3028   1.401       .  A
C3028      F3029   1.358       .  S
C3033      C3034   1.398       .  A
C3033      C3038   1.394       .  A
C3033      F3040   1.357       .  S
C3034      C3035   1.402       .  A
C3035      C3036   1.397       .  A
C3035      F3042   1.357       .  S
C3036      C3037   1.402       .  A
C3036      F3041   1.357       .  S
C3037      C3038   1.407       .  A
C3038      F3039   1.356       .  S
C3043      C3044   1.402       .  A
C3043      C3048   1.394       .  A
C3043      F3050   1.358       .  S
C3044      C3045   1.404       .  A
C3045      C3046   1.398       .  A
C3045      F3052   1.358       .  S
C3046      C3047   1.403       .  A
C3046      F3051   1.358       .  S
C3047      C3048   1.404       .  A
C3048      F3049   1.357       .  S
C3053      C3054   1.416       .  A
C3053      C3058   1.421   1_455  A
C3053      F3060   1.356       .  S
C3054      C3055   1.416       .  A
C3055      C3056   1.410   1_455  A
C3055      F3062   1.357       .  S
C3056      C3057   1.408       .  A
C3056      F3061   1.357       .  S
C3057      C3058   1.411       .  A
C3058      F3059   1.356       .  S
C3063      C3064   1.422       .  A
C3063      C3068   1.439       .  A
C3063      F3070   1.356       .  S
C3064      C3065   1.432       .  A
C3065      C3066   1.432       .  A
C3065      F3072   1.357       .  S
C3066      C3067   1.412       .  A
C3066      F3071   1.357       .  S
C3067      C3068   1.427       .  A
C3068      F3069   1.357       .  S
C3073      C3074   1.405       .  A
C3073      C3078   1.405       .  A
C3073      F3080   1.357       .  S
C3074      C3075   1.403       .  A
C3075      C3076   1.389       .  A
C3075      F3082   1.354       .  S
C3076      C3077   1.413       .  A
C3076      F3081   1.356       .  S
C3077      C3078   1.413       .  A
C3078      F3079   1.357       .  S
C3083      C3084   1.404       .  A
C3083      C3088   1.408       .  A
C3083      F3090   1.356       .  S
C3084      C3085   1.403       .  A
C3085      C3086   1.402       .  A
C3085      F3092   1.357       .  S
C3086      C3087   1.414       .  A
C3086      F3091   1.353       .  S
C3087      C3088   1.411       .  A
C3088      F3089   1.357       .  S
C3093      C3094   1.410       .  A
C3093      C3098   1.413       .  A
C3093      F3100   1.357       .  S
C3094      C3095   1.413       .  A
C3095      C3096   1.398       .  A
C3095      F3102   1.357       .  S
C3096      C3097   1.403       .  A
C3096      F3101   1.357       .  S
C3097      C3098   1.410       .  A
C3098      F3099   1.357       .  S
C3103      C3104   1.427       .  A
C3103      C3108   1.420       .  A
C3103      F3110   1.356       .  S
C3104      C3105   1.422       .  A
C3105      C3106   1.427       .  A
C3105      F3112   1.355       .  S
C3106      C3107   1.415       .  A
C3106      F3111   1.357       .  S
C3107      C3108   1.407       .  A
C3108      F3109   1.357       .  S
C3113      C3114   1.400       .  A
C3113      C3118   1.403       .  A
C3113      F3120   1.356       .  S
C3114      C3115   1.405       .  A
C3115      C3116   1.404       .  A
C3115      F3122   1.357       .  S
C3116      C3117   1.409       .  A
C3116      F3121   1.357       .  S
C3117      C3118   1.413       .  A
C3118      F3119   1.357       .  S
C3123      C3124   1.400       .  A
C3123      C3128   1.407       .  A
C3123      F3130   1.357       .  S
C3124      C3125   1.402       .  A
C3125      C3126   1.402       .  A
C3125      F3132   1.357       .  S
C3126      C3127   1.419       .  A
C3126      F3131   1.357       .  S
C3127      C3128   1.420       .  A
C3128      F3129   1.355       .  S
C3133      C3134   1.396       .  A
C3133      C3138   1.391       .  A
C3133      F3140   1.358       .  S
C3134      C3135   1.403       .  A
C3135      C3136   1.396       .  A
C3135      F3142   1.358       .  S
C3136      C3137   1.403       .  A
C3136      F3141   1.357       .  S
C3137      C3138   1.409       .  A
C3138      F3139   1.357       .  S
C3143      C3144   1.399       .  A
C3143      C3148   1.397       .  A
C3143      F3150   1.357       .  S
C3144      C3145   1.402       .  A
C3145      C3146   1.404       .  A
C3145      F3152   1.356       .  S
C3146      C3147   1.411       .  A
C3146      F3151   1.357       .  S
C3147      C3148   1.414       .  A
C3148      F3149   1.358       .  S
C3153      C3154   1.402       .  A
C3153      C3158   1.387       .  A
C3153      F3160   1.358       .  S
C3154      C3155   1.400       .  A
C3155      C3156   1.393       .  A
C3155      F3162   1.357       .  S
C3156      C3157   1.405       .  A
C3156      F3161   1.358       .  S
C3157      C3158   1.396       .  A
C3158      F3159   1.358       .  S
C3163      C3164   1.420       .  A
C3163      C3168   1.406       .  A
C3163      F3170   1.353       .  S
C3164      C3165   1.422       .  A
C3165      C3166   1.409       .  A
C3165      F3172   1.356       .  S
C3166      C3167   1.403       .  A
C3166      F3171   1.358       .  S
C3167      C3168   1.401       .  A
C3168      F3169   1.356       .  S
C3173      C3174   1.407       .  A
C3173      C3178   1.415       .  A
C3173      F3180   1.357       .  S
C3174      C3175   1.410       .  A
C3175      C3176   1.415       .  A
C3175      F3182   1.357       .  S
C3176      C3177   1.416       .  A
C3176      F3181   1.357       .  S
C3177      C3178   1.419       .  A
C3178      F3179   1.356       .  S
C3183      C3184   1.398       .  A
C3183      C3188   1.386       .  A
C3183      F3190   1.359       .  S
C3184      C3185   1.398       .  A
C3185      C3186   1.391       .  A
C3185      F3192   1.358       .  S
C3186      C3187   1.406       .  A
C3186      F3191   1.358       .  S
C3187      C3188   1.404       .  A
C3188      F3189   1.357       .  S
C3193      C3194   1.409       .  A
C3193      C3198   1.400       .  A
C3193      F3200   1.358       .  S
C3194      C3195   1.405       .  A
C3195      C3196   1.407       .  A
C3195      F3202   1.357       .  S
C3196      C3197   1.407       .  A
C3196      F3201   1.357       .  S
C3197      C3198   1.405       .  A
C3198      F3199   1.358       .  S
C3203      C3204   1.403       .  A
C3203      C3208   1.381       .  A
C3203      F3210   1.359       .  S
C3204      C3205   1.404       .  A
C3205      C3206   1.390       .  A
C3205      F3212   1.356       .  S
C3206      C3207   1.398       .  A
C3206      F3211   1.357       .  S
C3207      C3208   1.399       .  A
C3208      F3209   1.358       .  S
C3213      C3214   1.416       .  A
C3213      C3218   1.425       .  A
C3213      F3220   1.356       .  S
C3214      C3215   1.416       .  A
C3215      C3216   1.406       .  A
C3215      F3222   1.351       .  S
C3216      C3217   1.410       .  A
C3216      F3221   1.351       .  S
C3217      C3218   1.425       .  A
C3218      F3219   1.357       .  S
C3223      C3224   1.424       .  A
C3223      C3228   1.430       .  A
C3223      F3230   1.357       .  S
C3224      C3225   1.419       .  A
C3225      C3226   1.419       .  A
C3225      F3232   1.349       .  S
C3226      C3227   1.417       .  A
C3226      F3231   1.356       .  S
C3227      C3228   1.419       .  A
C3228      F3229   1.355       .  S
C3233      C3234   1.401       .  A
C3233      C3238   1.389       .  A
C3233      F3240   1.358       .  S
C3234      C3235   1.406       .  A
C3235      C3236   1.391       .  A
C3235      F3242   1.358       .  S
C3236      C3237   1.397       .  A
C3236      F3241   1.358       .  S
C3237      C3238   1.401       .  A
C3238      F3239   1.359       .  S
C3243      C3244   1.400       .  A
C3243      C3248   1.401       .  A
C3243      F3250   1.357       .  S
C3244      C3245   1.404       .  A
C3245      C3246   1.408       .  A
C3245      F3252   1.357       .  S
C3246      C3247   1.415       .  A
C3246      F3251   1.356       .  S
C3247      C3248   1.418       .  A
C3248      F3249   1.356       .  S
C3253      C3254   1.403       .  A
C3253      C3258   1.381       .  A
C3253      F3260   1.358       .  S
C3254      C3255   1.397       .  A
C3255      C3256   1.394       .  A
C3255      F3262   1.356       .  S
C3256      C3257   1.403       .  A
C3256      F3261   1.357       .  S
C3257      C3258   1.402       .  A
C3258      F3259   1.356       .  S
C3263      C3264   1.425       .  A
C3263      C3268   1.429       .  A
C3263      F3270   1.357       .  S
C3264      C3265   1.425       .  A
C3265      C3266   1.430       .  A
C3265      F3272   1.355       .  S
C3266      C3267   1.416       .  A
C3266      F3271   1.355       .  S
C3267      C3268   1.416       .  A
C3268      F3269   1.357       .  S
C3273      C3274   1.409       .  A
C3273      C3278   1.400       .  A
C3273      F3280   1.358       .  S
C3274      C3275   1.406       .  A
C3275      C3276   1.407       .  A
C3275      F3282   1.357       .  S
C3276      C3277   1.407       .  A
C3276      F3281   1.357       .  S
C3277      C3278   1.404       .  A
C3278      F3279   1.358       .  S
C3283      C3284   1.401       .  A
C3283      C3288   1.388       .  A
C3283      F3290   1.358       .  S
C3284      C3285   1.406       .  A
C3285      C3286   1.387       .  A
C3285      F3292   1.359       .  S
C3286      C3287   1.398       .  A
C3286      F3291   1.358       .  S
C3287      C3288   1.402       .  A
C3288      F3289   1.357       .  S
C3293      C3294   1.416       .  A
C3293      C3298   1.429       .  A
C3293      F3300   1.356       .  S
C3294      C3295   1.418       .  A
C3295      C3296   1.427       .  A
C3295      F3302   1.357       .  S
C3296      C3297   1.431       .  A
C3296      F3301   1.351       .  S
C3297      C3298   1.435       .  A
C3298      F3299   1.345       .  S
C3303      C3304   1.408       .  A
C3303      C3308   1.418       .  A
C3303      F3310   1.356       .  S
C3304      C3305   1.413       .  A
C3305      C3306   1.414       .  A
C3305      F3312   1.357       .  S
C3306      C3307   1.412       .  A
C3306      F3311   1.357       .  S
C3307      C3308   1.415       .  A
C3308      F3309   1.354       .  S
C3313      C3314   1.404       .  A
C3313      C3318   1.391       .  A
C3313      F3320   1.358       .  S
C3314      C3315   1.407       .  A
C3315      C3316   1.386       .  A
C3315      F3322   1.359       .  S
C3316      C3317   1.397       .  A
C3316      F3321   1.358       .  S
C3317      C3318   1.400       .  A
C3318      F3319   1.358       .  S
C3323      C3324   1.402       .  A
C3323      C3328   1.386       .  A
C3323      F3330   1.354       .  S
C3324      C3325   1.399       .  A
C3325      C3326   1.387       .  A
C3325      F3332   1.358       .  S
C3326      C3327   1.400       .  A
C3326      F3331   1.358       .  S
C3327      C3328   1.399       .  A
C3328      F3329   1.359       .  S
C3333      C3334   1.403       .  A
C3333      C3338   1.394       .  A
C3333      F3340   1.358       .  S
C3334      C3335   1.405       .  A
C3335      C3336   1.391       .  A
C3335      F3342   1.356       .  S
C3336      C3337   1.398       .  A
C3336      F3341   1.358       .  S
C3337      C3338   1.402       .  A
C3338      F3339   1.358       .  S
C3343      C3344   1.398       .  A
C3343      C3348   1.393       .  A
C3343      F3350   1.357       .  S
C3344      C3345   1.406       .  A
C3345      C3346   1.392       .  A
C3345      F3352   1.358       .  S
C3346      C3347   1.398       .  A
C3346      F3351   1.357       .  S
C3347      C3348   1.407       .  A
C3348      F3349   1.357       .  S
C3353      C3354   1.400       .  A
C3353      C3358   1.388       .  A
C3353      F3360   1.357       .  S
C3354      C3355   1.397       .  A
C3355      C3356   1.391       .  A
C3355      F3362   1.357       .  S
C3356      C3357   1.405       .  A
C3356      F3361   1.357       .  S
C3357      C3358   1.398       .  A
C3358      F3359   1.358       .  S
C3363      C3364   1.403       .  A
C3363      C3368   1.390       .  A
C3363      F3370   1.357       .  S
C3364      C3365   1.399       .  A
C3365      C3366   1.384       .  A
C3365      F3372   1.358       .  S
C3366      C3367   1.400       .  A
C3366      F3371   1.357       .  S
C3367      C3368   1.399       .  A
C3368      F3369   1.358       .  S
C3373      C3374   1.409       .  A
C3373      C3378   1.415       .  A
C3373      F3380   1.357       .  S
C3374      C3375   1.407       .  A
C3375      C3376   1.408       .  A
C3375      F3382   1.356       .  S
C3376      C3377   1.408       .  A
C3376      F3381   1.357       .  S
C3377      C3378   1.413       .  A
C3378      F3379   1.357       .  S
C3383      C3384   1.406       .  A
C3383      C3388   1.401       .  A
C3383      F3390   1.358       .  S
C3384      C3385   1.405       .  A
C3385      C3386   1.400       .  A
C3385      F3392   1.357       .  S
C3386      C3387   1.408       .  A
C3386      F3391   1.358       .  S
C3387      C3388   1.402       .  A
C3388      F3389   1.357       .  S
C3393      C3394   1.403       .  A
C3393      C3398   1.410       .  A
C3393      F3400   1.357       .  S
C3394      C3395   1.399       .  A
C3395      C3396   1.400       .  A
C3395      F3402   1.358       .  S
C3396      C3397   1.425       .  A
C3396      F3401   1.354       .  S
C3397      C3398   1.422       .  A
C3398      F3399   1.352       .  S
C3403      C3404   1.407       .  A
C3403      C3408   1.406       .  A
C3403      F3410   1.357       .  S
C3404      C3405   1.407       .  A
C3405      C3406   1.408       .  A
C3405      F3412   1.357       .  S
C3406      C3407   1.409       .  A
C3406      F3411   1.355       .  S
C3407      C3408   1.406       .  A
C3408      F3409   1.357       .  S
C3413      C3414   1.407       .  A
C3413      C3418   1.392       .  A
C3413      F3420   1.358       .  S
C3414      C3415   1.403       .  A
C3415      C3416   1.406       .  A
C3415      F3422   1.357       .  S
C3416      C3417   1.409       .  A
C3416      F3421   1.358       .  S
C3417      C3418   1.401       .  A
C3418      F3419   1.357       .  S
C3423      C3424   1.428       .  A
C3423      C3428   1.420       .  A
C3423      F3430   1.355       .  S
C3424      C3425   1.425       .  A
C3425      C3426   1.430       .  A
C3425      F3432   1.355       .  S
C3426      C3427   1.415       .  A
C3426      F3431   1.357       .  S
C3427      C3428   1.409       .  A
C3428      F3429   1.358       .  S
C3433      C3434   1.405       .  A
C3433      C3438   1.405       .  A
C3433      F3440   1.357       .  S
C3434      C3435   1.414       .  A
C3435      C3436   1.398   1_545  A
C3435      F3442   1.356   1_545  S
C3436      C3437   1.397   1_565  A
C3436      F3441   1.357       .  S
C3437      C3438   1.413       .  A
C3438      F3439   1.356       .  S
C3443      C3444   1.424       .  A
C3443      C3448   1.416       .  A
C3443      F3450   1.356       .  S
C3444      C3445   1.423       .  A
C3445      C3446   1.422       .  A
C3445      F3452   1.356       .  S
C3446      C3447   1.410       .  A
C3446      F3451   1.357       .  S
C3447      C3448   1.407       .  A
C3448      F3449   1.357       .  S
C3453      C3454   1.406       .  A
C3453      C3458   1.396       .  A
C3453      F3460   1.358       .  S
C3454      C3455   1.394       .  A
C3455      C3456   1.390       .  A
C3455      F3462   1.358       .  S
C3456      C3457   1.414       .  A
C3456      F3461   1.357       .  S
C3457      C3458   1.404       .  A
C3458      F3459   1.357       .  S
C3463      C3464   1.405       .  A
C3463      C3468   1.398       .  A
C3463      F3470   1.358       .  S
C3464      C3465   1.409       .  A
C3465      C3466   1.397       .  A
C3465      F3472   1.359       .  S
C3466      C3467   1.400       .  A
C3466      F3471   1.357       .  S
C3467      C3468   1.404       .  A
C3468      F3469   1.357       .  S
C3473      C3474   1.403       .  A
C3473      C3478   1.399       .  A
C3473      F3480   1.357       .  S
C3474      C3475   1.400       .  A
C3475      C3476   1.396       .  A
C3475      F3482   1.358       .  S
C3476      C3477   1.409       .  A
C3476      F3481   1.358       .  S
C3477      C3478   1.406       .  A
C3478      F3479   1.358       .  S
C3483      C3484   1.403       .  A
C3483      C3488   1.413       .  A
C3483      F3490   1.358       .  S
C3484      C3485   1.411       .  A
C3485      C3486   1.420       .  A
C3485      F3492   1.357       .  S
C3486      C3487   1.419       .  A
C3486      F3491   1.353       .  S
C3487      C3488   1.426       .  A
C3488      F3489   1.357       .  S
C3493      C3494   1.412       .  A
C3493      C3498   1.414       .  A
C3493      F3500   1.357       .  S
C3494      C3495   1.415       .  A
C3495      C3496   1.411       .  A
C3495      F3502   1.357       .  S
C3496      C3497   1.406       .  A
C3496      F3501   1.357       .  S
C3497      C3498   1.411       .  A
C3498      F3499   1.357       .  S
C3503      C3504   1.398       .  A
C3503      C3508   1.393       .  A
C3503      F3510   1.357       .  S
C3504      C3505   1.402       .  A
C3505      C3506   1.395       .  A
C3505      F3512   1.358       .  S
C3506      C3507   1.409       .  A
C3506      F3511   1.358       .  S
C3507      C3508   1.413       .  A
C3508      F3509   1.358       .  S
C3513      C3514   1.411       .  A
C3513      C3518   1.408       .  A
C3513      F3520   1.357       .  S
C3514      C3515   1.414       .  A
C3515      C3516   1.395       .  A
C3515      F3522   1.358       .  S
C3516      C3517   1.400       .  A
C3516      F3521   1.358       .  S
C3517      C3518   1.407       .  A
C3518      F3519   1.357       .  S
C3523      C3524   1.396       .  A
C3523      C3528   1.379       .  A
C3523      F3530   1.358       .  S
C3524      C3525   1.395       .  A
C3525      C3526   1.384       .  A
C3525      F3532   1.357       .  S
C3526      C3527   1.406       .  A
C3526      F3531   1.359       .  S
C3527      C3528   1.406       .  A
C3528      F3529   1.359       .  S
C3533      C3534   1.410       .  A
C3533      C3538   1.405       .  A
C3533      F3540   1.357       .  S
C3534      C3535   1.408       .  A
C3535      C3536   1.413       .  A
C3535      F3542   1.357       .  S
C3536      C3537   1.410       .  A
C3536      F3541   1.356       .  S
C3537      C3538   1.408       .  A
C3538      F3539   1.357       .  S
C3543      C3544   1.416       .  A
C3543      C3548   1.424       .  A
C3543      F3550   1.357       .  S
C3544      C3545   1.423       .  A
C3545      C3546   1.424       .  A
C3545      F3552   1.354       .  S
C3546      C3547   1.419       .  A
C3546      F3551   1.355       .  S
C3547      C3548   1.423       .  A
C3548      F3549   1.350       .  S
C3553      C3554   1.399       .  A
C3553      C3558   1.392       .  A
C3553      F3560   1.358       .  S
C3554      C3555   1.395       .  A
C3555      C3556   1.371       .  A
C3555      F3562   1.358       .  S
C3556      C3557   1.398       .  A
C3556      F3561   1.359       .  S
C3557      C3558   1.401       .  A
C3558      F3559   1.358       .  S
C3563      C3564   1.402       .  A
C3563      C3568   1.396       .  A
C3563      F3570   1.357       .  S
C3564      C3565   1.406       .  A
C3565      C3566   1.392       .  A
C3565      F3572   1.358       .  S
C3566      C3567   1.401       .  A
C3566      F3571   1.358       .  S
C3567      C3568   1.404       .  A
C3568      F3569   1.353       .  S
C3573      C3574   1.418       .  A
C3573      C3578   1.419       .  A
C3573      F3580   1.357       .  S
C3574      C3575   1.408       .  A
C3575      C3576   1.403       .  A
C3575      F3582   1.353       .  S
C3576      C3577   1.416       .  A
C3576      F3581   1.353       .  S
C3577      C3578   1.415       .  A
C3578      F3579   1.356       .  S
C3583      C3584   1.413       .  A
C3583      C3588   1.396       .  A
C3583      F3590   1.357       .  S
C3584      C3585   1.409       .  A
C3585      C3586   1.400       .  A
C3585      F3592   1.357       .  S
C3586      C3587   1.404       .  A
C3586      F3591   1.357       .  S
C3587      C3588   1.402       .  A
C3588      F3589   1.358       .  S
C3593      C3594   1.410       .  A
C3593      C3598   1.409       .  A
C3593      F3600   1.356       .  S
C3594      C3595   1.396       .  A
C3595      C3596   1.396       .  A
C3595      F3602   1.358       .  S
C3596      C3597   1.421       .  A
C3596      F3601   1.358       .  S
C3597      C3598   1.411       .  A
C3598      F3599   1.357       .  S
C3603      C3604   1.402       .  A
C3603      C3608   1.385       .  A
C3603      F3610   1.356       .  S
C3604      C3605   1.392       .  A
C3605      C3606   1.389       .  A
C3605      F3612   1.357       .  S
C3606      C3607   1.411       .  A
C3606      F3611   1.359       .  S
C3607      C3608   1.399       .  A
C3608      F3609   1.358       .  S
C3613      C3614   1.413       .  A
C3613      C3618   1.399       .  A
C3613      F3620   1.356       .  S
C3614      C3615   1.412       .  A
C3615      C3616   1.403       .  A
C3615      F3622   1.357       .  S
C3616      C3617   1.405       .  A
C3616      F3621   1.358       .  S
C3617      C3618   1.402       .  A
C3618      F3619   1.355       .  S
C3623      C3624   1.400       .  A
C3623      C3628   1.403       .  A
C3623      F3630   1.358       .  S
C3624      C3625   1.397       .  A
C3625      C3626   1.395       .  A
C3625      F3632   1.358       .  S
C3626      C3627   1.418       .  A
C3626      F3631   1.352       .  S
C3627      C3628   1.417       .  A
C3628      F3629   1.357   1_545  S
C3633      C3634   1.402       .  A
C3633      C3638   1.392       .  A
C3633      F3640   1.355       .  S
C3634      C3635   1.402       .  A
C3635      C3636   1.401       .  A
C3635      F3642   1.358       .  S
C3636      C3637   1.410       .  A
C3636      F3641   1.358       .  S
C3637      C3638   1.408       .  A
C3638      F3639   1.358       .  S
C3643      C3644   1.403       .  A
C3643      C3648   1.403       .  A
C3643      F3650   1.357       .  S
C3644      C3645   1.411       .  A
C3645      C3646   1.410       .  A
C3645      F3652   1.355       .  S
C3646      C3647   1.406       .  A
C3646      F3651   1.357       .  S
C3647      C3648   1.413       .  A
C3648      F3649   1.358       .  S
C3653      C3654   1.401       .  A
C3653      C3658   1.382       .  A
C3653      F3660   1.358       .  S
C3654      C3655   1.401       .  A
C3655      C3656   1.379       .  A
C3655      F3662   1.358       .  S
C3656      C3657   1.395       .  A
C3656      F3661   1.356       .  S
C3657      C3658   1.395       .  A
C3658      F3659   1.359       .  S
C3663      C3664   1.398       .  A
C3663      C3668   1.391       .  A
C3663      F3670   1.356       .  S
C3664      C3665   1.403       .  A
C3665      C3666   1.401       .  A
C3665      F3672   1.358       .  S
C3666      C3667   1.411       .  A
C3666      F3671   1.357       .  S
C3667      C3668   1.412       .  A
C3668      F3669   1.356       .  S
C3673      C3674   1.420       .  A
C3673      C3678   1.408       .  A
C3673      F3680   1.358       .  S
C3674      C3675   1.419       .  A
C3675      C3676   1.414       .  A
C3675      F3682   1.354       .  S
C3676      C3677   1.407       .  A
C3676      F3681   1.357       .  S
C3677      C3678   1.405       .  A
C3678      F3679   1.358       .  S
C3683      C3684   1.404       .  A
C3683      C3688   1.390       .  A
C3683      F3690   1.358       .  S
C3684      C3685   1.404       .  A
C3685      C3686   1.375       .  A
C3685      F3692   1.359       .  S
C3686      C3687   1.397       .  A
C3686      F3691   1.359       .  S
C3687      C3688   1.397       .  A
C3688      F3689   1.357       .  S
