geometry optimzed in LAMMPS
_audit_creation_date              2020-11-30 
_audit_creation_method            'lammps2cif' 
_symmetry_space_group_name_H-M    'P1' 
_symmetry_Int_Tables_number       1 
_symmetry_cell_setting            triclinic 
loop_ 
_symmetry_equiv_pos_as_xyz 
  x,y,z 
_cell_length_a                    36.00111526140861 
_cell_length_b                    35.724393907740804 
_cell_length_c                    35.848701740025426 
_cell_angle_alpha                 89.87502560823731 
_cell_angle_beta                  89.94924651308268 
_cell_angle_gamma                 89.82618268575044 
loop_ 
_atom_site_label 
_atom_site_type_symbol 
_atom_site_fract_x 
_atom_site_fract_y 
_atom_site_fract_z 
_atom_site_charge 
C1          C  0.65071075  0.12921727  0.86902114     0.04170
C2          C  0.65162558  0.11914138  0.83114880    -0.11980
C3          C  0.65108109  0.14697913  0.80352119     0.01670
C4          C  0.64921861  0.18467687  0.81382845    -0.10510
C5          C  0.64954838  0.19494845  0.85142353     0.04160
C6          C  0.65013206  0.16719021  0.87906118    -0.09930
H7          H  0.65411703  0.08995457  0.82332086     0.09760
H8          H  0.65103036  0.20620794  0.79249542     0.07290
H9          H  0.65163140  0.17506038  0.90819157     0.07130
C10         C  0.81162022  0.13101385  0.71130245     0.04170
C11         C  0.77390918  0.12100941  0.70777981    -0.11980
C12         C  0.74615679  0.14864985  0.70762137     0.01670
C13         C  0.75618168  0.18641764  0.70867941    -0.10510
C14         C  0.79337334  0.19678919  0.71257889     0.04160
C15         C  0.82093578  0.16912904  0.71463380    -0.09930
H16         H  0.76600375  0.09178389  0.70699323     0.09760
H17         H  0.73467399  0.20772758  0.71009499     0.07290
H18         H  0.84946327  0.17723114  0.71972338     0.07130
C19         C  0.81005440  0.28778159  0.87363313     0.04170
C20         C  0.82035853  0.29091231  0.83583478    -0.11980
C21         C  0.79305713  0.29324608  0.80804461     0.01670
C22         C  0.75556861  0.29436104  0.81816101    -0.10510
C23         C  0.74498799  0.29036266  0.85546758     0.04160
C24         C  0.77215236  0.28662192  0.88308355    -0.09930
H25         H  0.84938971  0.28971306  0.82792214     0.09760
H26         H  0.73443783  0.29420707  0.79656906     0.07290
H27         H  0.76381977  0.28161925  0.91171195     0.07130
C28         C  0.64102033  0.29996334  0.86105498     0.04170
C29         C  0.63087475  0.26198488  0.85916428    -0.11980
C30         C  0.65818596  0.23398314  0.86056488     0.01670
C31         C  0.69557699  0.24391269  0.86331595    -0.10510
C32         C  0.70605125  0.28151351  0.86345592     0.04160
C33         C  0.67881732  0.30954352  0.86311164    -0.09930
H34         H  0.60200618  0.25434478  0.85547267     0.09760
H35         H  0.71680250  0.22231339  0.86177674     0.07290
H36         H  0.68707346  0.33868947  0.86282826     0.07130
C37         C  0.80104214  0.30163040  0.70333678     0.04170
C38         C  0.80095586  0.26355668  0.69363416    -0.11980
C39         C  0.80171662  0.23600334  0.72146833     0.01670
C40         C  0.80311116  0.24655974  0.75895477    -0.10510
C41         C  0.80190701  0.28438726  0.76901806     0.04160
C42         C  0.80092247  0.31199612  0.74116537    -0.09930
H43         H  0.79887145  0.25546132  0.66460124     0.09760
H44         H  0.80155452  0.22519745  0.78047897     0.07290
H45         H  0.79877355  0.34125226  0.74882212     0.07130
C46         C  0.64183837  0.14114826  0.69905289     0.04170
C47         C  0.63219304  0.14036211  0.73704897    -0.11980
C48         C  0.65980567  0.13834865  0.76442564     0.01670
C49         C  0.69715755  0.13691499  0.75379321    -0.10510
C50         C  0.70728557  0.13925044  0.71614034     0.04160
C51         C  0.67958050  0.14106619  0.68868485    -0.09930
H52         H  0.60331962  0.14291336  0.74529057     0.09760
H53         H  0.71854630  0.13787965  0.77508767     0.07290
H54         H  0.68730396  0.14386427  0.65959806     0.07130
C55         C  0.14013431  0.29055105  0.87109293     0.04170
C56         C  0.13192230  0.28860983  0.83282417    -0.11980
C57         C  0.16036872  0.29104455  0.80634610     0.01670
C58         C  0.19709685  0.29514303  0.81808604    -0.10510
C59         C  0.20592280  0.29490698  0.85611970     0.04160
C60         C  0.17739716  0.29336587  0.88265682    -0.09930
H61         H  0.10359527  0.28398919  0.82372508     0.09760
H62         H  0.21925293  0.29438869  0.79756227     0.07290
H63         H  0.18426331  0.29233673  0.91207031     0.07130
C64         C  0.13951915  0.13015465  0.71078545     0.04170
C65         C  0.17730691  0.11990052  0.71168855    -0.11980
C66         C  0.20500668  0.14723300  0.70973241     0.01670
C67         C  0.19501869  0.18501515  0.70789098    -0.10510
C68         C  0.15767613  0.19583608  0.70921826     0.04160
C69         C  0.12987095  0.16842947  0.70980461    -0.09930
H70         H  0.18513533  0.09075096  0.71500044     0.09760
H71         H  0.21649323  0.20621717  0.70920781     0.07290
H72         H  0.10096665  0.17688255  0.71098455     0.07130
C73         C  0.29818855  0.13180547  0.87067191     0.04170
C74         C  0.29943982  0.12056204  0.83310668    -0.11980
C75         C  0.30015367  0.14747183  0.80462986     0.01670
C76         C  0.30052203  0.18550873  0.81364179    -0.10510
C77         C  0.29801039  0.19695168  0.85075325     0.04160
C78         C  0.29677534  0.17014420  0.87928584    -0.09930
H79         H  0.29836161  0.09108524  0.82606199     0.09760
H80         H  0.29922119  0.20625652  0.79155234     0.07290
H81         H  0.29374948  0.17903962  0.90803144     0.07130
C82         C  0.30949815  0.30203195  0.85635838     0.04170
C83         C  0.27241313  0.31270233  0.86366466    -0.11980
C84         C  0.24443719  0.28557178  0.86598066     0.01670
C85         C  0.25398952  0.24761261  0.86587164    -0.10510
C86         C  0.29044255  0.23655249  0.85851429     0.04160
C87         C  0.31754241  0.26367341  0.85181760    -0.09930
H88         H  0.26475714  0.34195977  0.86554568     0.09760
H89         H  0.23228100  0.22664168  0.86687261     0.07290
H90         H  0.34488239  0.25472059  0.84277381     0.07130
C91         C  0.30907520  0.13954232  0.70050042     0.04170
C92         C  0.27134546  0.13950840  0.69047523    -0.11980
C93         C  0.24388420  0.13797864  0.71818142     0.01670
C94         C  0.25424440  0.13590922  0.75569338    -0.10510
C95         C  0.29166868  0.13750746  0.76593474     0.04160
C96         C  0.31913736  0.13907715  0.73832455    -0.09930
H97         H  0.26345072  0.14227228  0.66142115     0.09760
H98         H  0.23300174  0.13720243  0.77712576     0.07290
H99         H  0.34809334  0.14162674  0.74620316     0.07130
C100        C  0.15478415  0.30098536  0.70157934     0.04170
C101        C  0.15678484  0.31020099  0.73963946    -0.11980
C102        C  0.15327763  0.28244004  0.76695626     0.01670
C103        C  0.14929461  0.24502930  0.75632406    -0.10510
C104        C  0.14953891  0.23508798  0.71857085     0.04160
C105        C  0.15123272  0.26313531  0.69121456    -0.09930
H106        H  0.16175948  0.33889400  0.74801932     0.09760
H107        H  0.14953729  0.22329186  0.77749808     0.07290
H108        H  0.15149875  0.25534832  0.66202236     0.07130
C109        C  0.30318374  0.80071701  0.86938319     0.04170
C110        C  0.30426836  0.81056427  0.83138474    -0.11980
C111        C  0.30421394  0.78266230  0.80398301     0.01670
C112        C  0.30368720  0.74494900  0.81474696    -0.10510
C113        C  0.30154425  0.73488846  0.85247519     0.04160
C114        C  0.30141280  0.76279524  0.87978236    -0.09930
H115        H  0.30346978  0.83978086  0.82321039     0.09760
H116        H  0.30143166  0.72341988  0.79356025     0.07290
H117        H  0.29847554  0.75517060  0.90891020     0.07130
C118        C  0.14259285  0.79934185  0.71148933     0.04170
C119        C  0.13282355  0.76131373  0.71219175    -0.11980
C120        C  0.16051183  0.73370647  0.71118477     0.01670
C121        C  0.19784449  0.74410877  0.70931521    -0.10510
C122        C  0.20792644  0.78185648  0.70995720     0.04160
C123        C  0.18026724  0.80957182  0.71086547    -0.09930
H124        H  0.10389859  0.75330188  0.71441336     0.09760
H125        H  0.21926579  0.72268395  0.71059923     0.07290
H126        H  0.18796907  0.83882382  0.71239481     0.06410
C127        C  0.14044825  0.63213854  0.86856809     0.04170
C128        C  0.13053056  0.63011026  0.83055711    -0.11980
C129        C  0.15756806  0.63424684  0.80281713     0.01670
C130        C  0.19494682  0.63713123  0.81269663    -0.10510
C131        C  0.20540818  0.63899828  0.85005193     0.04160
C132        C  0.17814728  0.63744234  0.87800037    -0.09930
H133        H  0.10166902  0.62738772  0.82249782     0.09760
H134        H  0.21573421  0.64118721  0.79111615     0.07290
H135        H  0.18617985  0.64118066  0.90685403     0.07130
C136        C  0.30976821  0.63002417  0.85942295     0.04170
C137        C  0.31940647  0.66811036  0.86292465    -0.11980
C138        C  0.29192415  0.69596822  0.86173966     0.01670
C139        C  0.25443694  0.68582591  0.86099418    -0.10510
C140        C  0.24425821  0.64820466  0.85855264     0.04160
C141        C  0.27189036  0.62059211  0.85637250    -0.09930
H142        H  0.34828699  0.67634712  0.86449132     0.09760
H143        H  0.23324276  0.70738796  0.85893885     0.07290
H144        H  0.26384091  0.59187736  0.85117161     0.07130
C145        C  0.15306065  0.62914057  0.69861169     0.04170
C146        C  0.15543416  0.66756198  0.69025698    -0.11980
C147        C  0.15174630  0.69427463  0.71847775     0.01670
C148        C  0.14740901  0.68261718  0.75542669    -0.10510
C149        C  0.14764322  0.64448017  0.76445762     0.04160
C150        C  0.14896335  0.61777778  0.73600320    -0.09930
H151        H  0.16112883  0.67666317  0.66198328     0.09760
H152        H  0.14800914  0.70326076  0.77759938     0.07290
H153        H  0.14907839  0.58829788  0.74318160     0.07130
C154        C  0.31202182  0.78892592  0.69897213     0.04170
C155        C  0.32246152  0.79043810  0.73687728    -0.11980
C156        C  0.29527816  0.79169634  0.76491949     0.01670
C157        C  0.25775554  0.79321926  0.75508590    -0.10510
C158        C  0.24692969  0.79082019  0.71776428     0.04160
C159        C  0.27400670  0.78830569  0.68976890    -0.09930
H160        H  0.35152085  0.78884069  0.74458909     0.09760
H161        H  0.23674801  0.79231207  0.77681370     0.07290
H162        H  0.26551524  0.78435101  0.66106518     0.07130
C163        C  0.81035519  0.79892637  0.70825242     0.04170
C164        C  0.82017885  0.76069704  0.70839129    -0.11980
C165        C  0.79253461  0.73310876  0.70795066     0.01670
C166        C  0.75517724  0.74372530  0.70603285    -0.10510
C167        C  0.74494256  0.78151230  0.70703378     0.04160
C168        C  0.77252355  0.80907700  0.70829121    -0.09930
H169        H  0.84911272  0.75247702  0.71042663     0.09760
H170        H  0.73383237  0.72241144  0.70773266     0.07290
H171        H  0.76459616  0.83825829  0.71085212     0.07130
C172        C  0.65158256  0.80013960  0.87049612     0.04170
C173        C  0.64757584  0.76232217  0.88111479    -0.11980
C174        C  0.64815182  0.73401751  0.85419890     0.01670
C175        C  0.64899206  0.74342990  0.81639428    -0.10510
C176        C  0.65252645  0.78070802  0.80525964     0.04160
C177        C  0.65509907  0.80888635  0.83226978    -0.09930
H178        H  0.64612368  0.75466231  0.91032915     0.09760
H179        H  0.65036905  0.72141036  0.79564385     0.07290
H180        H  0.66053404  0.83740720  0.82351270     0.07130
C181        C  0.80873717  0.63215631  0.87085410     0.04170
C182        C  0.81844099  0.63416342  0.83284543    -0.11980
C183        C  0.79071803  0.63763977  0.80559972     0.01670
C184        C  0.75337451  0.63876946  0.81638433    -0.10510
C185        C  0.74342712  0.63748921  0.85411037     0.04160
C186        C  0.77111190  0.63401517  0.88135714    -0.09930
H187        H  0.84743768  0.63449473  0.82468927     0.09760
H188        H  0.73207201  0.64329724  0.79545380     0.07290
H189        H  0.76359857  0.63449636  0.91063419     0.07130
C190        C  0.80013814  0.62786578  0.70120686     0.04170
C191        C  0.80046012  0.66579402  0.69057707    -0.11980
C192        C  0.80095511  0.69393934  0.71775855     0.01670
C193        C  0.80124917  0.68402967  0.75559880    -0.10510
C194        C  0.79987855  0.64638979  0.76651180     0.04160
C195        C  0.79960730  0.61830998  0.73926949    -0.09930
H196        H  0.79879613  0.67333641  0.66131850     0.09760
H197        H  0.79923326  0.70574464  0.77660761     0.07290
H198        H  0.79719046  0.58921994  0.74756989     0.07130
C199        C  0.63960886  0.62969288  0.86616711     0.04170
C200        C  0.62963085  0.66772769  0.86548168    -0.11980
C201        C  0.65715221  0.69524233  0.86444062     0.01670
C202        C  0.69464519  0.68471856  0.86456802    -0.10510
C203        C  0.70490514  0.64692970  0.86419220     0.04160
C204        C  0.67734070  0.61934870  0.86535319    -0.09930
H205        H  0.60062449  0.67574635  0.86358158     0.09760
H206        H  0.71586358  0.70599992  0.86136444     0.07290
H207        H  0.68506253  0.59006100  0.86355393     0.07130
C208        C  0.64043929  0.78430232  0.70070074     0.04170
C209        C  0.63194492  0.78396114  0.73902259    -0.11980
C210        C  0.65998019  0.78843519  0.76570221     0.01670
C211        C  0.69683101  0.79230251  0.75420996    -0.10510
C212        C  0.70611358  0.79032492  0.71637462     0.04160
C213        C  0.67788385  0.78730209  0.68955436    -0.09930
H214        H  0.60364808  0.77904056  0.74814484     0.09760
H215        H  0.71872536  0.79270475  0.77496631     0.07290
H216        H  0.68521400  0.78551789  0.66029068     0.07130
C217        C  0.14046332  0.63042999  0.19966945     0.04170
C218        C  0.17797271  0.63270673  0.18864121    -0.11980
C219        C  0.20586690  0.63698644  0.21559061     0.01670
C220        C  0.19624577  0.63892610  0.25329588    -0.10510
C221        C  0.15910757  0.63759425  0.26440169     0.04160
C222        C  0.13121404  0.63278799  0.23773160    -0.09930
H223        H  0.18518052  0.63274078  0.15929308     0.09760
H224        H  0.21764404  0.64410061  0.27395276     0.07290
H225        H  0.10234238  0.63257756  0.24633548     0.07130
C226        C  0.14336518  0.80022423  0.36024548     0.04170
C227        C  0.13302149  0.76229868  0.35956350    -0.11980
C228        C  0.16030641  0.73425419  0.36019653     0.01670
C229        C  0.19779657  0.74415411  0.36210807    -0.10510
C230        C  0.20840930  0.78178342  0.36160940     0.04160
C231        C  0.18119224  0.80983294  0.36078268    -0.09930
H232        H  0.10399969  0.75472410  0.35713725     0.09760
H233        H  0.21892548  0.72248276  0.36037700     0.07290
H234        H  0.18937159  0.83895224  0.35892127     0.07130
C235        C  0.30340470  0.79923059  0.20089189     0.04170
C236        C  0.30416103  0.80829746  0.23902270    -0.11980
C237        C  0.30356808  0.77983985  0.26597125     0.01670
C238        C  0.30271182  0.74238905  0.25474157    -0.10510
C239        C  0.30099757  0.73313172  0.21689771     0.04160
C240        C  0.30145611  0.76153709  0.18994162    -0.09930
H241        H  0.30366562  0.83735766  0.24764443     0.09760
H242        H  0.30013448  0.72047974  0.27559607     0.07290
H243        H  0.29899306  0.75447312  0.16066673     0.07130
C244        C  0.30964926  0.62875935  0.20621921     0.04170
C245        C  0.31953107  0.66669776  0.20707000    -0.11980
C246        C  0.29195687  0.69438666  0.20689519     0.01670
C247        C  0.25452336  0.68406629  0.20534298    -0.10510
C248        C  0.24433611  0.64626021  0.20547497     0.04160
C249        C  0.27200212  0.61854930  0.20567038    -0.09930
H250        H  0.34847001  0.67454084  0.20974092     0.09760
H251        H  0.23319783  0.70544845  0.20781288     0.07290
H252        H  0.26433358  0.58928659  0.20751447     0.07130
C253        C  0.31249293  0.78779983  0.37077203     0.04170
C254        C  0.27466363  0.78957573  0.38063848    -0.11980
C255        C  0.24730894  0.79031587  0.35289073     0.01670
C256        C  0.25769778  0.79082908  0.31535095    -0.10510
C257        C  0.29505476  0.78831605  0.30511992     0.04160
C258        C  0.32247515  0.78654077  0.33279072    -0.09930
H259        H  0.26650107  0.78869926  0.40972180     0.09760
H260        H  0.23642194  0.78960134  0.29394752     0.07290
H261        H  0.35132580  0.78296817  0.32486685     0.07130
C262        C  0.15048071  0.62951848  0.36851848     0.04170
C263        C  0.15001164  0.61949774  0.33071093    -0.11980
C264        C  0.15026034  0.64722382  0.30314651     0.01670
C265        C  0.15017240  0.68500539  0.31340535    -0.10510
C266        C  0.15120158  0.69527798  0.35105069     0.04160
C267        C  0.15129626  0.66746820  0.37866906    -0.09930
H268        H  0.15130178  0.59024040  0.32282721     0.09760
H269        H  0.15255976  0.70640654  0.29200852     0.07290
H270        H  0.15358161  0.67520437  0.40778248     0.07130
C271        C  0.65231237  0.79284723  0.19636737     0.04170
C272        C  0.65400617  0.75496177  0.18561227    -0.11980
C273        C  0.65304524  0.72664604  0.21286562     0.01670
C274        C  0.65004513  0.73624832  0.25060230    -0.10510
C275        C  0.64997152  0.77369226  0.26153761     0.04160
C276        C  0.65096097  0.80192836  0.23443340    -0.09930
H277        H  0.65724144  0.74765568  0.15646219     0.09760
H278        H  0.65143761  0.71444655  0.27176129     0.07290
H279        H  0.65204871  0.83093487  0.24297983     0.07130
C280        C  0.80619342  0.80459542  0.36115303     0.04170
C281        C  0.81522631  0.76629667  0.36356762    -0.11980
C282        C  0.78729207  0.73918571  0.36259084     0.01670
C283        C  0.75014858  0.75035529  0.36150468    -0.10510
C284        C  0.74062276  0.78832648  0.35878719     0.04160
C285        C  0.76864385  0.81544263  0.35811693    -0.09930
H286        H  0.84405330  0.75751500  0.36429129     0.09760
H287        H  0.72863859  0.72926059  0.35921788     0.07290
H288        H  0.76139180  0.84461762  0.35392385     0.07130
C289        C  0.81509795  0.63215157  0.20374582     0.04170
C290        C  0.77716023  0.62872730  0.19461835    -0.11980
C291        C  0.74981261  0.63281454  0.22209492     0.01670
C292        C  0.76029198  0.63785901  0.25920660    -0.10510
C293        C  0.79775227  0.64100802  0.26901238     0.04160
C294        C  0.82517651  0.63878874  0.24123562    -0.09930
H295        H  0.76880461  0.62485527  0.16586271     0.09760
H296        H  0.73902907  0.64211454  0.28026344     0.07290
H297        H  0.85402167  0.64319485  0.24858174     0.07130
C298        C  0.64569195  0.62196617  0.21172533     0.04170
C299        C  0.63561941  0.65966491  0.20582698    -0.11980
C300        C  0.66281091  0.68759464  0.20429423     0.01670
C301        C  0.70034579  0.67755951  0.20588245    -0.10510
C302        C  0.71091220  0.64031625  0.21191389     0.04160
C303        C  0.68359582  0.61266963  0.21550257    -0.09930
H304        H  0.60657472  0.66762525  0.20478905     0.09760
H305        H  0.72130908  0.69933201  0.20648441     0.07290
H306        H  0.69175381  0.58428031  0.22243856     0.07130
C307        C  0.79865407  0.63411455  0.37322614     0.04170
C308        C  0.79286928  0.67214090  0.38205572    -0.11980
C309        C  0.79645593  0.69985872  0.35459730     0.01670
C310        C  0.80283586  0.68950503  0.31749620    -0.10510
C311        C  0.80615383  0.65176481  0.30774239     0.04160
C312        C  0.80624226  0.62442246  0.33583664    -0.09930
H313        H  0.78475398  0.68020496  0.41001352     0.09760
H314        H  0.80168128  0.71062116  0.29573261     0.07290
H315        H  0.80957101  0.59532565  0.32804074     0.07130
C316        C  0.63796804  0.78336159  0.36641414     0.04170
C317        C  0.63041502  0.77529890  0.32858063    -0.11980
C318        C  0.65685814  0.78282758  0.30084596     0.01670
C319        C  0.69264726  0.79355908  0.31102871    -0.10510
C320        C  0.70206267  0.79711581  0.34855746     0.04160
C321        C  0.67412302  0.79551815  0.37570380    -0.09930
H322        H  0.60441018  0.76277947  0.32048602     0.09760
H323        H  0.71433303  0.79459370  0.28996633     0.07290
H324        H  0.68163539  0.80120382  0.40438105     0.07130
C325        C  0.81098482  0.28712767  0.19970729     0.04170
C326        C  0.77363735  0.29330967  0.18930597    -0.11980
C327        C  0.74566636  0.29438807  0.21647033     0.01670
C328        C  0.75525610  0.29417361  0.25425556    -0.10510
C329        C  0.79195426  0.28805124  0.26515921     0.04160
C330        C  0.81932616  0.28271076  0.23793019    -0.09930
H331        H  0.76586225  0.29530427  0.16020713     0.09760
H332        H  0.73349359  0.29420467  0.27524850     0.07290
H333        H  0.84696729  0.27452237  0.24663350     0.07130
C334        C  0.80807944  0.12642623  0.36158393     0.04170
C335        C  0.77032902  0.11653039  0.36158943    -0.11980
C336        C  0.74299350  0.14445738  0.36187844     0.01670
C337        C  0.75333808  0.18209262  0.36267171    -0.10510
C338        C  0.79075237  0.19219970  0.36139307     0.04160
C339        C  0.81821520  0.16438247  0.36093021    -0.09930
H340        H  0.76232943  0.08734578  0.36025552     0.09760
H341        H  0.73209516  0.20366646  0.36087530     0.07290
H342        H  0.84721592  0.17214267  0.35879489     0.07130
C343        C  0.65219447  0.12962024  0.20242823     0.04170
C344        C  0.65649739  0.16789203  0.19373375    -0.11980
C345        C  0.65404437  0.19511217  0.22178617     0.01670
C346        C  0.64891505  0.18407974  0.25880514    -0.10510
C347        C  0.64716781  0.14615288  0.26828094     0.04160
C348        C  0.64749094  0.11903910  0.24006871    -0.09930
H349        H  0.66217054  0.17647605  0.16532326     0.09760
H350        H  0.64986357  0.20497854  0.28074654     0.07290
H351        H  0.64589034  0.08971665  0.24765545     0.07130
C352        C  0.64174137  0.30022615  0.21523755     0.04170
C353        C  0.67880943  0.31128811  0.20913449    -0.11980
C354        C  0.70717031  0.28443328  0.20732730     0.01670
C355        C  0.69817945  0.24628405  0.20771819    -0.10510
C356        C  0.66163291  0.23482336  0.21388637     0.04160
C357        C  0.63386242  0.26180057  0.21911049    -0.09930
H358        H  0.68600257  0.34067413  0.20775044     0.09760
H359        H  0.72024502  0.22549843  0.20741909     0.07290
H360        H  0.60614889  0.25277639  0.22658240     0.07130
C361        C  0.63928676  0.14090205  0.37295101     0.04170
C362        C  0.67720949  0.13993196  0.38207121    -0.11980
C363        C  0.70399339  0.13581512  0.35414835     0.01670
C364        C  0.69295021  0.13285133  0.31693592    -0.10510
C365        C  0.65544731  0.13606411  0.30716313     0.04160
C366        C  0.62848354  0.13947864  0.33523465    -0.09930
H367        H  0.68591064  0.14392051  0.41071741     0.09760
H368        H  0.71394086  0.13258677  0.29516557     0.07290
H369        H  0.59951195  0.14276502  0.32770960     0.07130
C370        C  0.79744255  0.29694055  0.37001750     0.04170
C371        C  0.79764374  0.30697588  0.33205608    -0.11980
C372        C  0.79935585  0.27917104  0.30450442     0.01670
C373        C  0.80121724  0.24152335  0.31494582    -0.10510
C374        C  0.79955459  0.23123852  0.35253451     0.04160
C375        C  0.79779749  0.25890963  0.38008241    -0.09930
H376        H  0.79545016  0.33614356  0.32402094     0.09760
H377        H  0.80031510  0.22000255  0.29361515     0.07290
H378        H  0.79527274  0.25090730  0.40914754     0.07130
C379        C  0.14315670  0.29214891  0.19819301     0.04170
C380        C  0.18123359  0.29057059  0.18932899    -0.11980
C381        C  0.20778509  0.29021568  0.21789208     0.01670
C382        C  0.19636581  0.29251281  0.25506814    -0.10510
C383        C  0.15863047  0.29295902  0.26414674     0.04160
C384        C  0.13202922  0.29282100  0.23575664    -0.09930
H385        H  0.19001498  0.28794122  0.16052700     0.09760
H386        H  0.21683374  0.29016135  0.27714110     0.07290
H387        H  0.10276999  0.29136555  0.24284818     0.07130
C388        C  0.30158906  0.12612616  0.20481566     0.04170
C389        C  0.29947960  0.11544457  0.24256150    -0.11980
C390        C  0.29959649  0.14264656  0.27057690     0.01670
C391        C  0.30131624  0.18062283  0.26086202    -0.10510
C392        C  0.30198166  0.19170638  0.22342929     0.04160
C393        C  0.30277091  0.16442154  0.19542724    -0.09930
H394        H  0.29637025  0.08617668  0.24999957     0.09760
H395        H  0.29889674  0.20170520  0.28245456     0.07290
H396        H  0.30259170  0.17295863  0.16640078     0.07130
C397        C  0.13892859  0.13013135  0.36029943     0.04170
C398        C  0.12892284  0.16801095  0.35581373    -0.11980
C399        C  0.15572871  0.19609614  0.35846443     0.01670
C400        C  0.19304527  0.18652157  0.36316017    -0.10510
C401        C  0.20381270  0.14902171  0.36478098     0.04160
C402        C  0.17674233  0.12088895  0.36489774    -0.09930
H403        H  0.10037390  0.17566479  0.34976997     0.09760
H404        H  0.21405330  0.20817084  0.36193948     0.07290
H405        H  0.18535488  0.09187094  0.36688094     0.07130
C406        C  0.30827853  0.14037075  0.37465005     0.04170
C407        C  0.31777085  0.13368464  0.33702527    -0.11980
C408        C  0.29030415  0.13325892  0.30941354     0.01670
C409        C  0.25292917  0.13431236  0.31971129    -0.10510
C410        C  0.24281975  0.14002039  0.35689877     0.04160
C411        C  0.27042204  0.14489549  0.38391444    -0.09930
H412        H  0.34659880  0.13115269  0.32867740     0.09760
H413        H  0.23172603  0.13480850  0.29825223     0.07290
H414        H  0.26233514  0.15305798  0.41184575     0.07130
C415        C  0.14812417  0.30031132  0.36824779     0.04170
C416        C  0.14915992  0.31114777  0.33060740    -0.11980
C417        C  0.14831382  0.28387682  0.30262240     0.01670
C418        C  0.14617827  0.24600666  0.31230587    -0.10510
C419        C  0.14670203  0.23509717  0.34971739     0.04160
C420        C  0.14726750  0.26225141  0.37773584    -0.09930
H421        H  0.15224919  0.34043675  0.32324079     0.09760
H422        H  0.14810477  0.22489635  0.29072273     0.07290
H423        H  0.14893083  0.25380992  0.40677942     0.07130
C424        C  0.31192718  0.29672103  0.21368468     0.04170
C425        C  0.27440521  0.30727304  0.21150440    -0.11980
C426        C  0.24665339  0.27999495  0.21065420     0.01670
C427        C  0.25648084  0.24204478  0.21146624    -0.10510
C428        C  0.29377083  0.23113962  0.21445920     0.04160
C429        C  0.32156937  0.25855745  0.21546914    -0.09930
H430        H  0.26679610  0.33665579  0.21202202     0.09760
H431        H  0.23486510  0.22100649  0.21295517     0.07290
H432        H  0.35038438  0.25036114  0.21888404     0.07130
O433        O  0.51151083  0.42317802  0.19255460    -0.70740
O434        O  0.44165718  0.50245597  0.18830513    -0.70960
O435        O  0.51595009  0.49786938  0.19136613    -0.70820
O436        O  0.43729558  0.42789894  0.18934754    -0.70820
O437        O  0.43698417  0.42592876  0.24960916    -0.70780
O438        O  0.51151157  0.50148983  0.25162224    -0.70800
O439        O  0.43647993  0.50141704  0.24822837    -0.70740
O440        O  0.51171970  0.42640754  0.25307018    -0.70930
V441        V  0.47656387  0.46290529  0.19159812     1.35240
V442        V  0.47414766  0.46384695  0.24958014     1.35170
C443        C  0.52410300  0.41177936  0.22345201     0.78500
C444        C  0.42618868  0.51512993  0.21729807     0.78560
C445        C  0.52727501  0.51165661  0.22170338     0.78430
C446        C  0.42405750  0.41413136  0.21895814     0.78390
O447        O  0.12850676  0.42553870  0.50010827    -0.70740
O448        O  0.13115673  0.50323511  0.57134311    -0.70960
O449        O  0.12807405  0.49996941  0.49680510    -0.70820
O450        O  0.13154514  0.42843106  0.57456717    -0.70820
O451        O  0.19173855  0.42743499  0.57159838    -0.70780
O452        O  0.18802622  0.50127128  0.49496781    -0.70800
O453        O  0.19146156  0.50263550  0.56985278    -0.70740
O454        O  0.18831314  0.42586774  0.49655757    -0.70930
V455        V  0.13104507  0.46428358  0.53570421     1.35240
V456        V  0.18881765  0.46427631  0.53325736     1.35170
C457        C  0.15771577  0.41243250  0.48561681     0.78500
C458        C  0.16166039  0.51614488  0.58288890     0.78560
C459        C  0.15728106  0.51320062  0.48250323     0.78430
C460        C  0.16208504  0.41565680  0.58644297     0.78390
O461        O  0.51426668  0.18384991  0.50238390    -0.70740
O462        O  0.43478587  0.17998200  0.57272373    -0.70960
O463        O  0.50959927  0.18156998  0.57726678    -0.70820
O464        O  0.43923380  0.18237536  0.49766395    -0.70820
O465        O  0.43651954  0.12170373  0.50086473    -0.70780
O466        O  0.51495085  0.12146822  0.57111631    -0.70800
O467        O  0.44087890  0.11984613  0.57536867    -0.70740
O468        O  0.51096189  0.12350208  0.49694133    -0.70930
V469        V  0.47446190  0.18097344  0.53744079     1.35240
V470        V  0.47577835  0.12280227  0.53602040     1.35170
C471        C  0.52614196  0.15396330  0.48760518     0.78500
C472        C  0.42487899  0.14908697  0.58699204     0.78560
C473        C  0.52499016  0.15120121  0.58717228     0.78430
C474        C  0.42490745  0.15197769  0.48675956     0.78390
O475        O  0.82124950  0.42691568  0.49617761    -0.70740
O476        O  0.82211434  0.50251889  0.57007130    -0.70960
O477        O  0.82335909  0.42776749  0.57118822    -0.70820
O478        O  0.82013115  0.50210000  0.49569967    -0.70820
O479        O  0.75980047  0.50170141  0.49742346    -0.70780
O480        O  0.76339759  0.42589479  0.57231579    -0.70800
O481        O  0.76209355  0.50105454  0.57286615    -0.70740
O482        O  0.76119713  0.42595078  0.49746656    -0.70930
V483        V  0.82048953  0.46472808  0.53321949     1.35240
V484        V  0.76270168  0.46373922  0.53488890     1.35170
C485        C  0.79124287  0.41299158  0.48433893     0.78500
C486        C  0.79243239  0.51435003  0.58476197     0.78560
C487        C  0.79406807  0.41413914  0.58507355     0.78430
C488        C  0.78955850  0.51512054  0.48422643     0.78390
O489        O  0.51541938  0.80268675  0.49695916    -0.70740
O490        O  0.44240716  0.80636020  0.57335631    -0.70960
O491        O  0.51656610  0.80217326  0.57212336    -0.70820
O492        O  0.44108461  0.80707049  0.49896685    -0.70820
O493        O  0.43982269  0.74649095  0.49626631    -0.70780
O494        O  0.51176145  0.74167068  0.57433347    -0.70800
O495        O  0.43720748  0.74588393  0.57125604    -0.70740
O496        O  0.51465959  0.74186944  0.49885744    -0.70930
V497        V  0.47895169  0.80333521  0.53533548     1.35240
V498        V  0.47598670  0.74505912  0.53514141     1.35170
C499        C  0.52748814  0.77171485  0.48493398     0.78500
C500        C  0.42674621  0.77686125  0.58478592     0.78560
C501        C  0.52609970  0.77143827  0.58683220     0.78430
C502        C  0.42749976  0.77778698  0.48491782     0.78390
O503        O  0.43882342  0.50304778  0.82011659    -0.70740
O504        O  0.51442789  0.42792389  0.82267706    -0.70960
O505        O  0.43954157  0.42794018  0.81802585    -0.70820
O506        O  0.51334977  0.50343177  0.82402995    -0.70820
O507        O  0.50905905  0.50295621  0.88414454    -0.70780
O508        O  0.43810093  0.42483737  0.87858106    -0.70800
O509        O  0.51228619  0.42848959  0.88302798    -0.70740
O510        O  0.43470969  0.49976193  0.88045721    -0.70930
V511        V  0.47654439  0.46552634  0.82229846     1.35240
V512        V  0.47353687  0.46404932  0.88032652     1.35170
C513        C  0.42362651  0.51384366  0.85011396     0.78500
C514        C  0.52654135  0.41559455  0.85358972     0.78560
C515        C  0.42636226  0.41350746  0.84735664     0.78430
C516        C  0.52379329  0.51645061  0.85505569     0.78390
O517        O  0.01224853  0.00216390  0.38622107    -0.70740
O518        O  0.94043391  0.92466377  0.38649413    -0.70960
O519        O  0.01486286  0.92711241  0.38516102    -0.70820
O520        O  0.93768173  0.99906020  0.38764404    -0.70820
O521        O  0.93756695  0.00144041  0.32735449    -0.70780
O522        O  0.01367989  0.92717738  0.32484684    -0.70800
O523        O  0.93843613  0.92642308  0.32602454    -0.70740
O524        O  0.01236603  0.00212830  0.32563367    -0.70930
V525        V  0.97638749  0.96326061  0.38516699     1.35240
V526        V  0.97552024  0.96421290  0.32707067     1.35170
C527        C  0.02479457  0.01513380  0.35588680     0.78500
C528        C  0.92629753  0.91314273  0.35639956     0.78560
C529        C  0.02787144  0.91487214  0.35478865     0.78430
C530        C  0.92407812  0.01253399  0.35806950     0.78390
O531        O  0.01337300  0.00098870  0.74670234    -0.70740
O532        O  0.93760709  0.92666898  0.74611507    -0.70960
O533        O  0.01271165  0.92572839  0.74577444    -0.70820
O534        O  0.93859657  0.00197072  0.74706403    -0.70820
O535        O  0.93821054  0.00221774  0.68651065    -0.70780
O536        O  0.01257564  0.92684819  0.68558430    -0.70800
O537        O  0.93826465  0.92709512  0.68570784    -0.70740
O538        O  0.01255717  0.00199153  0.68622567    -0.70930
V539        V  0.97555826  0.96380382  0.74530775     1.35240
V540        V  0.97539977  0.96451899  0.68722660     1.35170
C541        C  0.02584105  0.01426473  0.71642569     0.78500
C542        C  0.92485794  0.91420704  0.71566824     0.78560
C543        C  0.02567837  0.91324241  0.71538885     0.78430
C544        C  0.92588066  0.01519780  0.71688493     0.78390
O545        O  0.32510021  0.00353564  0.99732222    -0.70740
O546        O  0.32873505  0.92928365  0.07300876    -0.70960
O547        O  0.32735001  0.92868700  0.99788598    -0.70820
O548        O  0.32667878  0.00398205  0.07200512    -0.70820
O549        O  0.26659845  0.00079378  0.07513372    -0.70780
O550        O  0.26726957  0.92823299  0.99750502    -0.70800
O551        O  0.26874767  0.92579318  0.07240554    -0.70740
O552        O  0.26499480  0.00388441  0.00014859    -0.70930
V553        V  0.32577352  0.96629622  0.03502118     1.35240
V554        V  0.26799050  0.96471725  0.03618957     1.35170
C555        C  0.29454395  0.01715667  0.98635422     0.78500
C556        C  0.29937924  0.91478321  0.08586704     0.78560
C557        C  0.29758111  0.91550883  0.98474689     0.78430
C558        C  0.29667816  0.01470613  0.08686891     0.78390
O559        O  0.93890248  0.24686084  0.99953026    -0.70740
O560        O  0.01505509  0.25032579  0.07352386    -0.70960
O561        O  0.94018438  0.24761817  0.07431437    -0.70820
O562        O  0.01363745  0.24876674  0.99814156    -0.70820
O563        O  0.01061831  0.30932667  0.99628986    -0.70780
O564        O  0.93997795  0.30846036  0.07483571    -0.70800
O565        O  0.01421704  0.31078699  0.07047824    -0.70740
O566        O  0.93651199  0.30753724  0.00018607    -0.70930
V567        V  0.97701229  0.24947443  0.03638042     1.35240
V568        V  0.97532951  0.30778361  0.03547216     1.35170
C569        C  0.92433536  0.27694231  0.98770558     0.78500
C570        C  0.02780636  0.28145119  0.08458749     0.78560
C571        C  0.92761028  0.27787301  0.08749508     0.78430
C572        C  0.02436669  0.27925142  0.98380069     0.78390
O573        O  0.68668691  0.00154490  0.99747860    -0.70740
O574        O  0.68863998  0.92840873  0.07511749    -0.70960
O575        O  0.68786651  0.92625641  0.99984976    -0.70820
O576        O  0.68785669  0.00364491  0.07269575    -0.70820
O577        O  0.62767530  0.00082667  0.07557210    -0.70780
O578        O  0.62762205  0.92840649  0.99820481    -0.70800
O579        O  0.62864601  0.92561886  0.07302608    -0.70740
O580        O  0.62682748  0.00340830  0.00106576    -0.70930
V581        V  0.68668401  0.96495496  0.03629486     1.35240
V582        V  0.62887406  0.96451896  0.03699204     1.35170
C583        C  0.65628988  0.01553863  0.98625072     0.78500
C584        C  0.65877913  0.91414911  0.08718124     0.78560
C585        C  0.65768828  0.91473213  0.98600078     0.78430
C586        C  0.65770348  0.01515931  0.08679531     0.78390
O587        O  0.01200129  0.65872457  0.99605404    -0.70740
O588        O  0.94018602  0.65864543  0.07373471    -0.70960
O589        O  0.01459164  0.65722392  0.07101680    -0.70820
O590        O  0.93721303  0.65982423  0.99913486    -0.70820
O591        O  0.93883852  0.59942280  0.99575114    -0.70780
O592        O  0.01149686  0.59675626  0.07279192    -0.70800
O593        O  0.93718513  0.59801134  0.07094343    -0.70740
O594        O  0.01377203  0.59801112  0.99748280    -0.70930
V595        V  0.97605033  0.65743047  0.03492024     1.35240
V596        V  0.97535406  0.59916595  0.03415614     1.35170
C597        C  0.02562873  0.62845074  0.98386421     0.78500
C598        C  0.92618221  0.62838663  0.08535856     0.78560
C599        C  0.02541209  0.62666528  0.08532306     0.78430
C600        C  0.92466391  0.63006743  0.98492373     0.78390
C601        C  0.39459528  0.38443016  0.21749823    -0.04300
C602        C  0.38975011  0.36228950  0.18484070    -0.01410
C603        C  0.36367346  0.33291209  0.18432569     0.03580
C604        C  0.34097395  0.32608991  0.21552999    -0.04300
C605        C  0.34454345  0.34859596  0.24758669    -0.01400
C606        C  0.37114723  0.37756660  0.24870246     0.03570
C607        C  0.41093034  0.36949588  0.15112651     0.38220
C608        C  0.32075919  0.34176654  0.27960325     0.38210
C609        C  0.37283761  0.40116185  0.28156891     0.36640
C610        C  0.35964113  0.30991678  0.15121390     0.36640
N611        N  0.37392370  0.41996016  0.30780400    -0.38180
N612        N  0.35645935  0.29146609  0.12492315    -0.38180
N613        N  0.30168882  0.33631653  0.30503139    -0.37630
N614        N  0.42750575  0.37513095  0.12401407    -0.37630
C615        C  0.15077738  0.32866924  0.39810063    -0.04300
C616        C  0.18553239  0.34339262  0.40819431    -0.01410
C617        C  0.18815783  0.37026740  0.43687280     0.03580
C618        C  0.15567174  0.38255554  0.45611978    -0.04300
C619        C  0.12081584  0.36639169  0.44618312    -0.01400
C620        C  0.11859911  0.33991955  0.41720345     0.03570
C621        C  0.21878026  0.33028836  0.38923920     0.38220
C622        C  0.08670255  0.37614942  0.46555344     0.38210
C623        C  0.08293820  0.32414664  0.40675898     0.36640
C624        C  0.22462977  0.38481527  0.44600582     0.36640
N625        N  0.05457941  0.31154495  0.39837423    -0.38180
N626        N  0.25386866  0.39616699  0.45307132    -0.38180
N627        N  0.05933515  0.38369736  0.48079552    -0.37630
N628        N  0.24519746  0.31963214  0.37416677    -0.37630
C629        C  0.33783900  0.14478907  0.40388818    -0.04300
C630        C  0.33408558  0.12716096  0.43920035    -0.01410
C631        C  0.36124340  0.13232183  0.46698393     0.03580
C632        C  0.39455082  0.15130335  0.45875274    -0.04300
C633        C  0.39902247  0.16799653  0.42338756    -0.01400
C634        C  0.37001417  0.16671416  0.39694248     0.03570
C635        C  0.30298835  0.10258011  0.44706451     0.38220
C636        C  0.43420879  0.18462941  0.41310215     0.38210
C637        C  0.37326719  0.18900195  0.36317715     0.36640
C638        C  0.35399090  0.11935838  0.50462784     0.36640
N639        N  0.37603680  0.20675635  0.33627129    -0.38180
N640        N  0.34726826  0.10960919  0.53464965    -0.38180
N641        N  0.46223890  0.19731267  0.40380377    -0.37630
N642        N  0.27821310  0.08304760  0.45358012    -0.37630
C643        C  0.10977098  0.10039483  0.35877472    -0.04300
C644        C  0.11346300  0.06923787  0.33455130    -0.01410
C645        C  0.08605355  0.04102272  0.33408703     0.03580
C646        C  0.05358675  0.04480454  0.35594235    -0.04300
C647        C  0.04895924  0.07682894  0.37842538    -0.01400
C648        C  0.07743553  0.10360725  0.38109100     0.03570
C649        C  0.14482626  0.06648292  0.30922094     0.38220
C650        C  0.01399126  0.08361775  0.39728713     0.38210
C651        C  0.07347910  0.13407664  0.40758108     0.36640
C652        C  0.09182550  0.00757440  0.31186281     0.36640
N653        N  0.07018574  0.15838657  0.42862781    -0.38180
N654        N  0.09649562  0.98078241  0.29435380    -0.38180
N655        N  0.98612206  0.09013739  0.41196531    -0.37630
N656        N  0.16984804  0.06420750  0.28904391    -0.37630
C657        C  0.29989581  0.09718286  0.17499936    -0.04300
C658        C  0.27043099  0.09730138  0.14896036    -0.01410
C659        C  0.26941499  0.07068344  0.11998137     0.03580
C660        C  0.29715434  0.04265573  0.11761287    -0.04300
C661        C  0.32576713  0.04158590  0.14473637    -0.01400
C662        C  0.32749449  0.06912121  0.17279545     0.03570
C663        C  0.24049008  0.12425707  0.15255568     0.38220
C664        C  0.35286621  0.01139655  0.14476747     0.38210
C665        C  0.35813924  0.06888262  0.19908603     0.36640
C666        C  0.24034015  0.07306471  0.09203274     0.36640
N667        N  0.38254246  0.06870148  0.22007918    -0.38180
N668        N  0.21718581  0.07509688  0.06973298    -0.38180
N669        N  0.37435407  0.98723091  0.14490032    -0.37630
N670        N  0.21658779  0.14572385  0.15558305    -0.37630
C671        C  0.05779663  0.28414523  0.11350365    -0.04300
C672        C  0.08291411  0.25405335  0.11966365    -0.01410
C673        C  0.11117938  0.25708972  0.14674079     0.03580
C674        C  0.11451799  0.28978647  0.16843389    -0.04300
C675        C  0.08957330  0.31968340  0.16279109    -0.01400
C676        C  0.06184350  0.31731371  0.13515538     0.03570
C677        C  0.08044844  0.21983711  0.09811139     0.38220
C678        C  0.09246043  0.35313261  0.18558193     0.38210
C679        C  0.03738212  0.34929809  0.12991094     0.36640
C680        C  0.13630432  0.22593952  0.15310180     0.36640
N681        N  0.01798135  0.37490609  0.12598035    -0.38180
N682        N  0.15643226  0.20119135  0.15825917    -0.38180
N683        N  0.09454355  0.37965054  0.20394039    -0.37630
N684        N  0.07873957  0.19219597  0.08144424    -0.37630
C685        C  0.79176257  0.38211759  0.45587798    -0.04300
C686        C  0.82365472  0.35879623  0.45209702    -0.01410
C687        C  0.82536691  0.33129092  0.42398112     0.03580
C688        C  0.79526687  0.32614535  0.39949183    -0.04300
C689        C  0.76284475  0.34795755  0.40392946    -0.01400
C690        C  0.76086160  0.37556565  0.43208837     0.03570
C691        C  0.85458089  0.36166936  0.47785056     0.38220
C692        C  0.73105863  0.34126392  0.37998301     0.38210
C693        C  0.72662733  0.39664916  0.43635782     0.36640
C694        C  0.85849005  0.30831124  0.41999919     0.36640
N695        N  0.69899123  0.41294415  0.43973872    -0.38180
N696        N  0.88480226  0.28989279  0.41685397    -0.38180
N697        N  0.70574932  0.33578805  0.36090261    -0.37630
N698        N  0.87943850  0.36362317  0.49818138    -0.37630
C699        C  0.55751949  0.15352835  0.46045510    -0.04300
C700        C  0.56201788  0.18212326  0.43343646    -0.01410
C701        C  0.58845553  0.17790201  0.40456608     0.03580
C702        C  0.61131919  0.14566335  0.40317582    -0.04300
C703        C  0.60892152  0.11871600  0.43193158    -0.01400
C704        C  0.58264505  0.12293085  0.46069460     0.03570
C705        C  0.54015801  0.21621168  0.43544972     0.38220
C706        C  0.63314448  0.08612924  0.43171457     0.38210
C707        C  0.58293300  0.09664002  0.49167945     0.36640
C708        C  0.59258635  0.20710249  0.37665332     0.36640
N709        N  0.58338430  0.07594689  0.51656490    -0.38180
N710        N  0.59583724  0.23028116  0.35428708    -0.38180
N711        N  0.65256909  0.06025673  0.43166425    -0.37630
N712        N  0.52326067  0.24377571  0.43715102    -0.37630
C713        C  0.61115457  0.32853809  0.21889116    -0.04300
C714        C  0.57756102  0.32369353  0.19889698    -0.01410
C715        C  0.54816942  0.34935528  0.20318281     0.03580
C716        C  0.55301864  0.38216609  0.22434447    -0.04300
C717        C  0.58641158  0.38743799  0.24421822    -0.01400
C718        C  0.61482175  0.36010707  0.24262739     0.03570
C719        C  0.57324197  0.29298823  0.17276683     0.38220
C720        C  0.59215505  0.42161929  0.26524410     0.38210
C721        C  0.64737046  0.36444908  0.26604280     0.36640
C722        C  0.51222913  0.34080782  0.18721107     0.36640
N723        N  0.67337520  0.36813302  0.28461786    -0.38180
N724        N  0.48361487  0.33287569  0.17500355    -0.38180
N725        N  0.59680774  0.44899815  0.28177834    -0.37630
N726        N  0.56961811  0.26849630  0.15201477    -0.37630
C727        C  0.65732844  0.04491780  0.11574479    -0.04300
C728        C  0.63318771  0.07596052  0.11209374    -0.01410
C729        C  0.63117681  0.10324689  0.14046728     0.03580
C730        C  0.65437242  0.10060427  0.17229984    -0.04300
C731        C  0.67959612  0.07013873  0.17513296    -0.01400
C732        C  0.68055464  0.04215846  0.14735479     0.03570
C733        C  0.61119051  0.08052934  0.07844710     0.38220
C734        C  0.70517003  0.06766391  0.20629635     0.38210
C735        C  0.70455575  0.00975681  0.15204820     0.36640
C736        C  0.60442498  0.13354575  0.13710899     0.36640
N737        N  0.72351871  0.98380814  0.15584670    -0.38180
N738        N  0.58318065  0.15777193  0.13433073    -0.38180
N739        N  0.72540255  0.06548478  0.23127181    -0.37630
N740        N  0.59391279  0.08424287  0.05147148    -0.37630
C741        C  0.89318388  0.04075516  0.35952350    -0.04300
C742        C  0.86917050  0.04591592  0.32847734    -0.01410
C743        C  0.84157602  0.07404366  0.32910206     0.03580
C744        C  0.83716164  0.09693314  0.36078127    -0.04300
C745        C  0.85998390  0.09127113  0.39214777    -0.01400
C746        C  0.88725104  0.06287767  0.39199035     0.03570
C747        C  0.87121397  0.02123217  0.29641891     0.38220
C748        C  0.85509910  0.11462396  0.42492921     0.38210
C749        C  0.90824793  0.05639762  0.42594168     0.36640
C750        C  0.81811901  0.08001844  0.29671010     0.36640
N751        N  0.92440189  0.05118672  0.45338196    -0.38180
N752        N  0.79944787  0.08490869  0.27089369    -0.38180
N753        N  0.85130123  0.13341036  0.45092203    -0.37630
N754        N  0.87252028  0.00146448  0.27090660    -0.37630
C755        C  0.84119655  0.28349433  0.17095342    -0.04300
C756        C  0.87593819  0.30137588  0.17648987    -0.01410
C757        C  0.90506078  0.29622160  0.15079885     0.03580
C758        C  0.89864197  0.27776031  0.11682269    -0.04300
C759        C  0.86407653  0.26044987  0.11052802    -0.01400
C760        C  0.83617555  0.26158076  0.13825359     0.03570
C761        C  0.88194687  0.32616647  0.20794670     0.38220
C762        C  0.85688785  0.24219088  0.07512673     0.38210
C763        C  0.80309076  0.23902915  0.13330318     0.36640
C764        C  0.94237844  0.30739199  0.16083207     0.36640
N765        N  0.77673789  0.22101790  0.12920292    -0.38180
N766        N  0.97209032  0.31517236  0.17016751    -0.38180
N767        N  0.85110269  0.22795121  0.04675754    -0.37630
N768        N  0.88699388  0.34587215  0.23301006    -0.37630
C769        C  0.60894438  0.77736614  0.39628923    -0.04300
C770        C  0.61870443  0.76229854  0.43179351    -0.01410
C771        C  0.59272939  0.76247673  0.46132796     0.03580
C772        C  0.55517342  0.77085354  0.45430320    -0.04300
C773        C  0.54419836  0.78022446  0.41781297    -0.01400
C774        C  0.57106553  0.78693084  0.38998575     0.03570
C775        C  0.65471943  0.74502913  0.43808675     0.38220
C776        C  0.50516639  0.78058648  0.40807797     0.38210
C777        C  0.55921425  0.80527576  0.35584154     0.36640
C778        C  0.60531404  0.75590073  0.49912438     0.36640
N779        N  0.54944311  0.81990889  0.32871571    -0.38180
N780        N  0.61643324  0.75174257  0.52909685    -0.38180
N781        N  0.47434309  0.77921129  0.39917464    -0.37630
N782        N  0.68336388  0.73115538  0.44325155    -0.37630
C783        C  0.79448379  0.60430193  0.40256566    -0.04300
C784        C  0.81281779  0.60760246  0.43742749    -0.01410
C785        C  0.80907254  0.57938925  0.46476164     0.03580
C786        C  0.78928461  0.54631851  0.45681865    -0.04300
C787        C  0.77091659  0.54281545  0.42231280    -0.01400
C788        C  0.77223968  0.57219693  0.39591867     0.03570
C789        C  0.83660619  0.63937575  0.44514824     0.38220
C790        C  0.75215637  0.50823997  0.41301037     0.38210
C791        C  0.74987070  0.56941748  0.36235054     0.36640
C792        C  0.82489876  0.58480382  0.50161202     0.36640
N793        N  0.73210771  0.56705519  0.33556204    -0.38180
N794        N  0.83708435  0.58922659  0.53113602    -0.38180
N795        N  0.73751796  0.48067183  0.40487241    -0.37630
N796        N  0.85546031  0.66475242  0.45151789    -0.37630
C797        C  0.61639671  0.59262685  0.21618469    -0.04300
C798        C  0.61736433  0.55992697  0.19400959    -0.01410
C799        C  0.58935747  0.53264451  0.19755462     0.03580
C800        C  0.55873393  0.53865841  0.22161674    -0.04300
C801        C  0.55803773  0.57091675  0.24437881    -0.01400
C802        C  0.58717873  0.59726719  0.24236577     0.03570
C803        C  0.64655909  0.55465533  0.16654360     0.38220
C804        C  0.52669817  0.57788489  0.26892483     0.38210
C805        C  0.58727636  0.62882080  0.26783032     0.36640
C806        C  0.59279777  0.49772042  0.17714589     0.36640
N807        N  0.58732770  0.65399960  0.28809911    -0.38180
N808        N  0.59563951  0.46974501  0.16115513    -0.38180
N809        N  0.50164229  0.58355002  0.28838705    -0.37630
N810        N  0.66984379  0.55038133  0.14466981    -0.37630
C811        C  0.84387797  0.63126033  0.17351101    -0.04300
C812        C  0.87430501  0.60610648  0.17555738    -0.01410
C813        C  0.90132032  0.60533865  0.14693197     0.03580
C814        C  0.89759780  0.62877262  0.11533647    -0.04300
C815        C  0.86698047  0.65346136  0.11291572    -0.01400
C816        C  0.84077635  0.65536193  0.14215796     0.03570
C817        C  0.87762524  0.58042663  0.20679593     0.38220
C818        C  0.86169243  0.67614025  0.07965644     0.38210
C819        C  0.81116740  0.68298085  0.14019620     0.36640
C820        C  0.93372712  0.58136009  0.15070911     0.36640
N821        N  0.78750560  0.70492390  0.13852559    -0.38180
N822        N  0.95971623  0.56245397  0.15377089    -0.38180
N823        N  0.85740175  0.69397034  0.05300046    -0.37630
N824        N  0.88034400  0.56000130  0.23175562    -0.37630
C825        C  0.89534067  0.88561968  0.35702060    -0.04300
C826        C  0.86663097  0.88905518  0.38385736    -0.01410
C827        C  0.83775631  0.86250463  0.38538494     0.03580
C828        C  0.83637636  0.83305153  0.35918475    -0.04300
C829        C  0.86414700  0.83058330  0.33129619    -0.01400
C830        C  0.89381546  0.85628870  0.33065781     0.03570
C831        C  0.86582119  0.92077669  0.40912137     0.38220
C832        C  0.86187761  0.80202516  0.30261741     0.38210
C833        C  0.92324027  0.85169946  0.30337117     0.36640
C834        C  0.80984602  0.86518672  0.41451491     0.36640
N835        N  0.94658428  0.84772362  0.28152411    -0.38180
N836        N  0.78756908  0.86737281  0.43771054    -0.38180
N837        N  0.86007874  0.77921883  0.27981116    -0.37630
N838        N  0.86506382  0.94619032  0.42908401    -0.37630
C839        C  0.65424368  0.82365519  0.16832951    -0.04300
C840        C  0.68705471  0.82979657  0.14766413    -0.01410
C841        C  0.68945194  0.86021782  0.12245840     0.03580
C842        C  0.65849748  0.88437495  0.11686340    -0.04300
C843        C  0.62640402  0.87917638  0.13938974    -0.01400
C844        C  0.62422323  0.84883179  0.16453735     0.03570
C845        C  0.71885416  0.80531398  0.15316376     0.38220
C846        C  0.59609157  0.90607948  0.13848047     0.38210
C847        C  0.59078174  0.84341601  0.18657144     0.36640
C848        C  0.72431704  0.86675512  0.10326340     0.36640
N849        N  0.56420660  0.83916066  0.20424826    -0.38180
N850        N  0.75248777  0.87202752  0.08860566    -0.38180
N851        N  0.57200012  0.92760631  0.13802119    -0.37630
N852        N  0.74415080  0.78574293  0.15759623    -0.37630
C853        C  0.15530207  0.54235550  0.45227106    -0.04300
C854        C  0.18673993  0.55018689  0.42948172    -0.01410
C855        C  0.18517081  0.57887034  0.40237957     0.03580
C856        C  0.15238244  0.59994966  0.39750151    -0.04300
C857        C  0.12089940  0.59202700  0.41928371    -0.01400
C858        C  0.12192259  0.56301366  0.44596747     0.03570
C859        C  0.22048847  0.52802999  0.43241849     0.38220
C860        C  0.08706153  0.61359639  0.41375294     0.38210
C861        C  0.08791640  0.55450401  0.46599554     0.36640
C862        C  0.21752857  0.58701677  0.37955456     0.36640
N863        N  0.06047528  0.54772751  0.48141717    -0.38180
N864        N  0.24322984  0.59354415  0.36127408    -0.38180
N865        N  0.06018684  0.63090501  0.40937747    -0.37630
N866        N  0.24744541  0.51040033  0.43446831    -0.37630
C867        C  0.34166770  0.78523792  0.40020859    -0.04300
C868        C  0.36945374  0.81293064  0.40249394    -0.01410
C869        C  0.39713429  0.81077773  0.43024783     0.03580
C870        C  0.39774226  0.78043817  0.45591569    -0.04300
C871        C  0.36932661  0.75313182  0.45403276    -0.01400
C872        C  0.34173090  0.75531901  0.42611584     0.03570
C873        C  0.36935591  0.84412382  0.37644581     0.38220
C874        C  0.36717064  0.72363893  0.48186430     0.38210
C875        C  0.31373414  0.72624735  0.42369642     0.36640
C876        C  0.42539297  0.83968461  0.43150675     0.36640
N877        N  0.29132699  0.70316199  0.42181423    -0.38180
N878        N  0.44801403  0.86262784  0.43225115    -0.38180
N879        N  0.36522311  0.70025320  0.50417290    -0.37630
N880        N  0.36940283  0.86887559  0.35556369    -0.37630
C881        C  0.39640544  0.54489654  0.21469031    -0.04300
C882        C  0.38486636  0.55917606  0.17925809    -0.01410
C883        C  0.35638284  0.58627659  0.17677726     0.03580
C884        C  0.33897356  0.59969223  0.20916148    -0.04300
C885        C  0.35011349  0.58625930  0.24435737    -0.01400
C886        C  0.37858903  0.55909799  0.24731401     0.03570
C887        C  0.40183002  0.54655703  0.14473169     0.38220
C888        C  0.33221087  0.60075630  0.27769158     0.38210
C889        C  0.38909248  0.54633802  0.28430527     0.36640
C890        C  0.34479087  0.60058958  0.14063672     0.36640
N891        N  0.39722488  0.53639798  0.31395878    -0.38180
N892        N  0.33549185  0.61205848  0.11189905    -0.38180
N893        N  0.31789233  0.61242695  0.30416093    -0.37630
N894        N  0.41514349  0.53672775  0.11701390    -0.37630
C895        C  0.30078769  0.88570858  0.11611239    -0.04300
C896        C  0.33265435  0.86255956  0.12074821    -0.01410
C897        C  0.33329602  0.83441694  0.14840744     0.03580
C898        C  0.30259718  0.82930890  0.17221440    -0.04300
C899        C  0.27120650  0.85273257  0.16857347    -0.01400
C900        C  0.27030159  0.88092413  0.14090934     0.03570
C901        C  0.36526300  0.86732225  0.09747182     0.38220
C902        C  0.23946850  0.84739071  0.19303726     0.38210
C903        C  0.23835661  0.90577694  0.13930351     0.36640
C904        C  0.36593871  0.81081987  0.15276629     0.36640
N905        N  0.21286650  0.92557855  0.13824743    -0.38180
N906        N  0.39187913  0.79192985  0.15626376    -0.38180
N907        N  0.21423371  0.84309423  0.21259529    -0.37630
N908        N  0.39178656  0.87107821  0.07962499    -0.37630
C909        C  0.11463848  0.83012543  0.35814230    -0.04300
C910        C  0.09313102  0.83481078  0.32558403    -0.01410
C911        C  0.06542909  0.86286975  0.32385822     0.03580
C912        C  0.05896372  0.88673410  0.35489903    -0.04300
C913        C  0.08228705  0.88302590  0.38675718    -0.01400
C914        C  0.10940683  0.85453177  0.38848377     0.03570
C915        C  0.10005089  0.81105668  0.29347599     0.38220
C916        C  0.07972502  0.90918409  0.41761397     0.38210
C917        C  0.13165611  0.84986843  0.42196739     0.36640
C918        C  0.04397150  0.86676898  0.28983536     0.36640
N919        N  0.14939476  0.84609328  0.44862612    -0.38180
N920        N  0.02737198  0.86983448  0.26235866    -0.38180
N921        N  0.07790551  0.93001448  0.44223983    -0.37630
N922        N  0.10567623  0.79210368  0.26793316    -0.37630
C923        C  0.11045741  0.62880699  0.17118819    -0.04300
C924        C  0.08578610  0.65926243  0.16682114    -0.01410
C925        C  0.05734722  0.65796914  0.13982116     0.03580
C926        C  0.05360301  0.62634714  0.11615416    -0.04300
C927        C  0.07715570  0.59492014  0.12228299    -0.01400
C928        C  0.10582594  0.59654486  0.14913348     0.03570
C929        C  0.08997339  0.69236523  0.18988455     0.38220
C930        C  0.07174524  0.56031106  0.10196460     0.38210
C931        C  0.13034522  0.56465703  0.15454961     0.36640
C932        C  0.03083230  0.68864202  0.13808147     0.36640
N933        N  0.14999056  0.53931218  0.15884319    -0.38180
N934        N  0.00960104  0.71301576  0.13696871    -0.38180
N935        N  0.06729937  0.53225625  0.08653009    -0.37630
N936        N  0.09326767  0.71866040  0.20837582    -0.37630
C937        C  0.61008673  0.77935157  0.67262214    -0.04300
C938        C  0.57936286  0.80412169  0.67229131    -0.01410
C939        C  0.55088262  0.79985656  0.64568669     0.03580
C940        C  0.55307552  0.77136831  0.61838870    -0.04300
C941        C  0.58211035  0.74474367  0.62057702    -0.01400
C942        C  0.61088760  0.74919629  0.64701469     0.03570
C943        C  0.57737709  0.83484652  0.69866638     0.38220
C944        C  0.58258428  0.71270625  0.59578669     0.38210
C945        C  0.64137776  0.72264732  0.64768178     0.36640
C946        C  0.51828671  0.82384472  0.64760302     0.36640
N947        N  0.66602788  0.70182395  0.64781233    -0.38180
N948        N  0.49210250  0.84264360  0.64931076    -0.38180
N949        N  0.58299645  0.68695946  0.57623770    -0.37630
N950        N  0.57566405  0.85923981  0.71979677    -0.37630
C951        C  0.61023460  0.60078017  0.86339528    -0.04300
C952        C  0.60524667  0.58103474  0.82980767    -0.01410
C953        C  0.57691847  0.55400056  0.82670627     0.03580
C954        C  0.55294090  0.54642513  0.85743123    -0.04300
C955        C  0.55755422  0.56753220  0.89076599    -0.01400
C956        C  0.58624650  0.59418072  0.89368913     0.03570
C957        C  0.62895487  0.58921922  0.79799702     0.38220
C958        C  0.53233296  0.56311404  0.92207374     0.38210
C959        C  0.59138961  0.61475911  0.92818344     0.36640
C960        C  0.57297689  0.53441525  0.79150904     0.36640
N961        N  0.59555085  0.63118109  0.95564756    -0.38180
N962        N  0.56997171  0.51929422  0.76315388    -0.38180
N963        N  0.51229360  0.55980312  0.94712491    -0.37630
N964        N  0.64787687  0.59585147  0.77272808    -0.37630
C965        C  0.79761890  0.59809961  0.67234220    -0.04300
C966        C  0.76491675  0.59390059  0.65115293    -0.01410
C967        C  0.76316248  0.56715076  0.62225151     0.03580
C968        C  0.79367179  0.54281130  0.61546301    -0.04300
C969        C  0.82568346  0.54579817  0.63852982    -0.01400
C970        C  0.82782276  0.57377844  0.66616552     0.03570
C971        C  0.73243056  0.61615114  0.66027321     0.38220
C972        C  0.85625256  0.51943003  0.63507575     0.38210
C973        C  0.86135292  0.57772639  0.68826179     0.36640
C974        C  0.73006417  0.56561689  0.59923700     0.36640
N975        N  0.88804788  0.58092933  0.70591449    -0.38180
N976        N  0.70359645  0.56459847  0.58096213    -0.38180
N977        N  0.88062210  0.49838063  0.63250904    -0.37630
N978        N  0.70640268  0.63345953  0.66816200    -0.37630
C979        C  0.83813722  0.63161125  0.90003754    -0.04300
C980        C  0.84373473  0.59947621  0.92218577    -0.01410
C981        C  0.87139330  0.59907283  0.95014317     0.03580
C982        C  0.89408385  0.63103382  0.95627943    -0.04300
C983        C  0.88695468  0.66389920  0.93487124    -0.01400
C984        C  0.85958838  0.66385355  0.90665115     0.03570
C985        C  0.82096351  0.56659913  0.91601244     0.38220
C986        C  0.90690337  0.69840281  0.94187338     0.38210
C987        C  0.85284745  0.69747097  0.88478087     0.36640
C988        C  0.87491903  0.56605842  0.97355358     0.36640
N989        N  0.84744106  0.72419099  0.86727805    -0.38180
N990        N  0.87746051  0.53970661  0.99223266    -0.38180
N991        N  0.92217512  0.72629178  0.94750159    -0.37630
N992        N  0.80270370  0.54046763  0.91109291    -0.37630
C993        C  0.65423437  0.83021870  0.89947873    -0.04300
C994        C  0.67882808  0.82630986  0.93014642    -0.01410
C995        C  0.67928376  0.85336128  0.95878197     0.03580
C996        C  0.65733500  0.88607104  0.95589767    -0.04300
C997        C  0.63463338  0.89119694  0.92414463    -0.01400
C998        C  0.63209514  0.86298025  0.89678232     0.03570
C999        C  0.70456455  0.79496886  0.93204630     0.38220
C1000       C  0.61486266  0.92620901  0.91866741     0.38210
C1001       C  0.60591324  0.86761356  0.86632736     0.36640
C1002       C  0.70127636  0.84645764  0.99193905     0.36640
N1003       N  0.58514020  0.87149356  0.84199002    -0.38180
N1004       N  0.71871385  0.84017913  0.01830320    -0.38180
N1005       N  0.59933650  0.95416749  0.91370515    -0.37630
N1006       N  0.72503587  0.76996995  0.93366802    -0.37630
C1007       C  0.89485882  0.88521304  0.71466004    -0.04300
C1008       C  0.89191340  0.85768250  0.74308350    -0.01410
C1009       C  0.86403393  0.82994736  0.74128991     0.03580
C1010       C  0.83951039  0.82851762  0.71053904    -0.04300
C1011       C  0.84230831  0.85590580  0.68223559    -0.01400
C1012       C  0.86919571  0.88447255  0.68460779     0.03570
C1013       C  0.91805182  0.85696286  0.77387369     0.38220
C1014       C  0.81788156  0.85431608  0.65006889     0.38210
C1015       C  0.86936303  0.91374646  0.65643914     0.36640
C1016       C  0.86007137  0.80331427  0.77166354     0.36640
N1017       N  0.86935832  0.93710461  0.63401171    -0.38180
N1018       N  0.85683343  0.78207288  0.79585976    -0.38180
N1019       N  0.79843064  0.85303066  0.62442033    -0.37630
N1020       N  0.93883700  0.85623389  0.79848049    -0.37630
C1021       C  0.34076695  0.78509810  0.66901298    -0.04300
C1022       C  0.36687011  0.75540964  0.67007845    -0.01410
C1023       C  0.39527689  0.75293697  0.64301628     0.03580
C1024       C  0.39661903  0.77887425  0.61321608    -0.04300
C1025       C  0.36906134  0.80710300  0.61075073    -0.01400
C1026       C  0.34187958  0.81076208  0.63892524     0.03570
C1027       C  0.36355192  0.72630881  0.69807352     0.38220
C1028       C  0.36766520  0.83158095  0.57839470     0.38210
C1029       C  0.31532030  0.84134373  0.63702284     0.36640
C1030       C  0.42375557  0.72431061  0.64667326     0.36640
N1031       N  0.29406057  0.86565661  0.63539663    -0.38180
N1032       N  0.44655208  0.70159659  0.64973285    -0.38180
N1033       N  0.36641487  0.85082529  0.55240834    -0.37630
N1034       N  0.36055172  0.70289642  0.72017401    -0.37630
C1035       C  0.15679433  0.60092428  0.66824234    -0.04300
C1036       C  0.18377168  0.57201633  0.67044395    -0.01410
C1037       C  0.18560341  0.54426798  0.64252933     0.03580
C1038       C  0.16192408  0.54636695  0.61117840    -0.04300
C1039       C  0.13692580  0.57672067  0.60774442    -0.01400
C1040       C  0.13344841  0.60308980  0.63661245     0.03570
C1041       C  0.21021199  0.57107887  0.70099184     0.38220
C1042       C  0.11554410  0.58184152  0.57385427     0.38210
C1043       C  0.10496746  0.63186585  0.63398111     0.36640
C1044       C  0.21088929  0.51284172  0.64691779     0.36640
N1045       N  0.08232416  0.65482828  0.63176312    -0.38180
N1046       N  0.23091948  0.48769151  0.65052780    -0.38180
N1047       N  0.09861428  0.58671489  0.54687734    -0.37630
N1048       N  0.23127212  0.57032365  0.72536355    -0.37630
C1049       C  0.33904861  0.60007484  0.85649868    -0.04300
C1050       C  0.33621990  0.56693164  0.87814271    -0.01410
C1051       C  0.36258795  0.53793953  0.87412714     0.03580
C1052       C  0.39363505  0.54255507  0.85041986    -0.04300
C1053       C  0.39691158  0.57561743  0.82907312    -0.01400
C1054       C  0.36940950  0.60380432  0.83142083     0.03570
C1055       C  0.30693313  0.56288462  0.90571616     0.38220
C1056       C  0.42938975  0.58145403  0.80573109     0.38210
C1057       C  0.37269550  0.63650842  0.80769077     0.36640
C1058       C  0.35707427  0.50275172  0.89371654     0.36640
N1059       N  0.37583726  0.66284185  0.78915734    -0.38180
N1060       N  0.35259697  0.47456876  0.90903433    -0.38180
N1061       N  0.45536348  0.58620370  0.78728493    -0.37630
N1062       N  0.28356871  0.55954808  0.92766053    -0.37630
C1063       C  0.11109120  0.63118580  0.89827492    -0.04300
C1064       C  0.11428132  0.60644789  0.92904362    -0.01410
C1065       C  0.08685728  0.60608835  0.95728072     0.03580
C1066       C  0.05481754  0.62888759  0.95423256    -0.04300
C1067       C  0.05116207  0.65285134  0.92300720    -0.01400
C1068       C  0.07963278  0.65503826  0.89600328     0.03570
C1069       C  0.14554018  0.58079433  0.93161179     0.38220
C1070       C  0.01738464  0.67434190  0.91754702     0.38210
C1071       C  0.07682179  0.68289729  0.86655188     0.36640
C1072       C  0.09266913  0.58322988  0.99019009     0.36640
N1073       N  0.07449333  0.70507266  0.84307171    -0.38180
N1074       N  0.09809501  0.56503494  0.01634341    -0.38180
N1075       N  0.99049461  0.69136335  0.91242443    -0.37630
N1076       N  0.17052478  0.56044107  0.93378959    -0.37630
C1077       C  0.11316428  0.82853860  0.71277032    -0.04300
C1078       C  0.09451896  0.83641573  0.74639669    -0.01410
C1079       C  0.06596274  0.86365175  0.74743738     0.03580
C1080       C  0.05571207  0.88364588  0.71451846    -0.04300
C1081       C  0.07476896  0.87505387  0.68064627    -0.01400
C1082       C  0.10329175  0.84785966  0.68003964     0.03570
C1083       C  0.10507782  0.81650134  0.78015298     0.38220
C1084       C  0.06549399  0.89363735  0.64582217     0.38210
C1085       C  0.12236065  0.83921680  0.64536042     0.36640
C1086       C  0.04704982  0.87007676  0.78262464     0.36640
N1087       N  0.13760973  0.83226192  0.61778975    -0.38180
N1088       N  0.03218159  0.87496491  0.81084903    -0.38180
N1089       N  0.05821763  0.90798690  0.61777316    -0.37630
N1090       N  0.11358678  0.80057409  0.80698082    -0.37630
C1091       C  0.30161321  0.83017298  0.89853999    -0.04300
C1092       C  0.33138510  0.83427876  0.92359381    -0.01410
C1093       C  0.33002310  0.86179980  0.95169179     0.03580
C1094       C  0.29856817  0.88576631  0.95520998    -0.04300
C1095       C  0.26844853  0.88105351  0.93004005    -0.01400
C1096       C  0.27012070  0.85350625  0.90186126     0.03570
C1097       C  0.36384455  0.81026132  0.92013710     0.38220
C1098       C  0.23559602  0.90451977  0.93241237     0.38210
C1099       C  0.23900889  0.84865284  0.87656770     0.36640
C1100       C  0.36117964  0.86448197  0.97715258     0.36640
N1101       N  0.21429930  0.84476182  0.85632242    -0.38180
N1102       N  0.38645830  0.86636379  0.99694858    -0.38180
N1103       N  0.20901906  0.92273378  0.93409126    -0.37630
N1104       N  0.38963423  0.79104175  0.91740203    -0.37630
C1105       C  0.15797648  0.33104251  0.67274934    -0.04300
C1106       C  0.18555385  0.32908535  0.64460661    -0.01410
C1107       C  0.18721398  0.35673431  0.61643350     0.03580
C1108       C  0.16248450  0.38758123  0.61716003    -0.04300
C1109       C  0.13670029  0.39082593  0.64679339    -0.01400
C1110       C  0.13365538  0.36221282  0.67369102     0.03570
C1111       C  0.21281599  0.29904981  0.64495696     0.38220
C1112       C  0.11392997  0.42426552  0.65044803     0.38210
C1113       C  0.10464712  0.36457487  0.70177278     0.36640
C1114       C  0.21357338  0.35254649  0.58605883     0.36640
N1115       N  0.08156959  0.36653761  0.72418728    -0.38180
N1116       N  0.23452342  0.34909227  0.56178915    -0.38180
N1117       N  0.09601858  0.45104868  0.65347986    -0.37630
N1118       N  0.23454621  0.27510303  0.64526790    -0.37630
C1119       C  0.33822656  0.14229581  0.67136994    -0.04300
C1120       C  0.35644368  0.17651546  0.66473122    -0.01410
C1121       C  0.38475453  0.17890026  0.63751441     0.03580
C1122       C  0.39513607  0.14681006  0.61641921    -0.04300
C1123       C  0.37675891  0.11227294  0.62389537    -0.01400
C1124       C  0.34832672  0.11033563  0.65090389     0.03570
C1125       C  0.34577336  0.20943803  0.68594205     0.38220
C1126       C  0.38641581  0.07825263  0.60397809     0.38210
C1127       C  0.32951882  0.07511700  0.65805011     0.36640
C1128       C  0.40369689  0.21436362  0.63250306     0.36640
N1129       N  0.31445039  0.04711253  0.66375862    -0.38180
N1130       N  0.41868727  0.24274417  0.62873533    -0.38180
N1131       N  0.39387354  0.05100057  0.58820743    -0.37630
N1132       N  0.33719357  0.23559852  0.70291912    -0.37630
C1133       C  0.33983377  0.33050984  0.85207682    -0.04300
C1134       C  0.37508466  0.32405982  0.86868023    -0.01410
C1135       C  0.40434859  0.34926680  0.86265971     0.03580
C1136       C  0.39760191  0.38407788  0.84566789    -0.04300
C1137       C  0.36272209  0.39118003  0.82922453    -0.01400
C1138       C  0.33459640  0.36366417  0.83061225     0.03570
C1139       C  0.38155050  0.29226170  0.89316777     0.38220
C1140       C  0.35560244  0.42697467  0.81134184     0.38210
C1141       C  0.30106027  0.36927479  0.80886452     0.36640
C1142       C  0.44206664  0.33756931  0.87054129     0.36640
N1143       N  0.27436037  0.37384095  0.79144793    -0.38180
N1144       N  0.47193719  0.32659684  0.87521729    -0.38180
N1145       N  0.34990422  0.45561653  0.79728306    -0.37630
N1146       N  0.38695306  0.26694609  0.91264696    -0.37630
C1147       C  0.29631121  0.10343606  0.90107684    -0.04300
C1148       C  0.26564865  0.07902840  0.90377252    -0.01410
C1149       C  0.26440069  0.05143490  0.93202756     0.03580
C1150       C  0.29391085  0.04801538  0.95804178    -0.04300
C1151       C  0.32358159  0.07406245  0.95638866    -0.01400
C1152       C  0.32496755  0.10119426  0.92779746     0.03570
C1153       C  0.23494658  0.08277296  0.87775742     0.38220
C1154       C  0.35221331  0.07416889  0.98489489     0.38210
C1155       C  0.35639732  0.12648295  0.92549659     0.36640
C1156       C  0.23263928  0.02663549  0.93377433     0.36640
N1157       N  0.38139356  0.14670109  0.92366107    -0.38180
N1158       N  0.20688673  0.00737616  0.93503763    -0.38180
N1159       N  0.37496818  0.07442387  0.00768151    -0.37630
N1160       N  0.21053622  0.08583333  0.85697193    -0.37630
C1161       C  0.11030279  0.10056779  0.71261154    -0.04300
C1162       C  0.10983519  0.07163660  0.68577770    -0.01410
C1163       C  0.08318719  0.04287561  0.68793799     0.03580
C1164       C  0.05540455  0.04350609  0.71593435    -0.04300
C1165       C  0.05570731  0.07262165  0.74269640    -0.01400
C1166       C  0.08344851  0.10052771  0.74148417     0.03570
C1167       C  0.13644885  0.07170018  0.65530262     0.38220
C1168       C  0.02684193  0.07477131  0.77090215     0.38210
C1169       C  0.08482033  0.12866019  0.77061244     0.36640
C1170       C  0.08542705  0.01193717  0.66185877     0.36640
N1171       N  0.08594627  0.15110358  0.79382023    -0.38180
N1172       N  0.08755419  0.98730926  0.64105498    -0.38180
N1173       N  0.00377956  0.07663252  0.79334382    -0.37630
N1174       N  0.15770286  0.07170262  0.63106163    -0.37630
C1175       C  0.10975408  0.28663713  0.89899730    -0.04300
C1176       C  0.08021591  0.31271193  0.89967106    -0.01410
C1177       C  0.05146163  0.30913658  0.92613409     0.03580
C1178       C  0.05259477  0.28019315  0.95325023    -0.04300
C1179       C  0.08143688  0.25311808  0.95140994    -0.01400
C1180       C  0.10968440  0.25624906  0.92427464     0.03570
C1181       C  0.07965209  0.34376401  0.87346871     0.38220
C1182       C  0.08264652  0.22197476  0.97739189     0.38210
C1183       C  0.13834784  0.22763201  0.92188249     0.36640
C1184       C  0.01994380  0.33453970  0.92424387     0.36640
N1185       N  0.16122719  0.20488407  0.91993923    -0.38180
N1186       N  0.99470911  0.35462453  0.92256419    -0.38180
N1187       N  0.08384108  0.19671117  0.99760455    -0.37630
N1188       N  0.07914362  0.36844876  0.85251159    -0.37630
C1189       C  0.61203159  0.14415358  0.67042198    -0.04300
C1190       C  0.58617259  0.11486930  0.66638451    -0.01410
C1191       C  0.55704438  0.11789811  0.64030673     0.03580
C1192       C  0.55412800  0.14981945  0.61684210    -0.04300
C1193       C  0.57991530  0.17941052  0.62128099    -0.01400
C1194       C  0.60846386  0.17669133  0.64821955     0.03570
C1195       C  0.58988488  0.08114826  0.68878575     0.38220
C1196       C  0.57789082  0.21240495  0.59768799     0.38210
C1197       C  0.63375908  0.20777485  0.65366586     0.36640
C1198       C  0.52938591  0.08843137  0.63876016     0.36640
N1199       N  0.65392547  0.23253300  0.65813523    -0.38180
N1200       N  0.50729880  0.06498482  0.63763593    -0.38180
N1201       N  0.57637022  0.23880150  0.57896357    -0.37630
N1202       N  0.59289797  0.05428161  0.70663724    -0.37630
C1203       C  0.79922802  0.33059146  0.67357079    -0.04300
C1204       C  0.76612984  0.35071994  0.66720401    -0.01410
C1205       C  0.76440754  0.37821410  0.63886108     0.03580
C1206       C  0.79579000  0.38526023  0.61568888    -0.04300
C1207       C  0.82902033  0.36455746  0.62241250    -0.01400
C1208       C  0.83055488  0.33754077  0.65115471     0.03570
C1209       C  0.73340461  0.34233211  0.68933327     0.38220
C1210       C  0.86209851  0.37044929  0.60003835     0.38210
C1211       C  0.86468319  0.31683624  0.65794364     0.36640
C1212       C  0.73035472  0.39968789  0.63473253     0.36640
N1213       N  0.89180938  0.30025241  0.66339806    -0.38180
N1214       N  0.70311629  0.41672704  0.63171718    -0.38180
N1215       N  0.88883113  0.37506021  0.58269892    -0.37630
N1216       N  0.70729067  0.33537186  0.70682146    -0.37630
C1217       C  0.55651198  0.38650287  0.85577075    -0.04300
C1218       C  0.55794053  0.36105839  0.88633122    -0.01410
C1219       C  0.58495589  0.33242279  0.88741361     0.03580
C1220       C  0.61207467  0.32979620  0.85914864    -0.04300
C1221       C  0.61191023  0.35605189  0.82959894    -0.01400
C1222       C  0.58428925  0.38415322  0.82781563     0.03570
C1223       C  0.53188566  0.36393407  0.91714976     0.38220
C1224       C  0.64009108  0.35404167  0.80070399     0.38210
C1225       C  0.58591555  0.41169421  0.79805408     0.36640
C1226       C  0.58517206  0.30587093  0.91816673     0.36640
N1227       N  0.58758717  0.43360800  0.77429801    -0.38180
N1228       N  0.58517294  0.28454678  0.94251668    -0.38180
N1229       N  0.66279909  0.35264281  0.77789244    -0.37630
N1230       N  0.51121098  0.36602224  0.94181564    -0.37630
C1231       C  0.83871355  0.28374052  0.90341966    -0.04300
C1232       C  0.83891730  0.30882020  0.93384634    -0.01410
C1233       C  0.86539095  0.30483987  0.96246464     0.03580
C1234       C  0.89360743  0.27723659  0.95990954    -0.04300
C1235       C  0.89315617  0.25176531  0.92973685    -0.01400
C1236       C  0.86533881  0.25451501  0.90207274     0.03570
C1237       C  0.81250953  0.33960074  0.93532768     0.38220
C1238       C  0.92193923  0.22346626  0.92623718     0.38210
C1239       C  0.86379138  0.22677125  0.87258886     0.36640
C1240       C  0.86275597  0.32870461  0.99513464     0.36640
N1241       N  0.86250767  0.20466766  0.84906878    -0.38180
N1242       N  0.86055771  0.34755786  0.02126513    -0.38180
N1243       N  0.94491316  0.20092416  0.92331422    -0.37630
N1244       N  0.79148881  0.36414508  0.93653484    -0.37630
C1245       C  0.84130853  0.10164333  0.71353121    -0.04300
C1246       C  0.83903430  0.07227173  0.74008442    -0.01410
C1247       C  0.86642492  0.04387547  0.74106874     0.03580
C1248       C  0.89733422  0.04544212  0.71676203    -0.04300
C1249       C  0.90063258  0.07581414  0.69163128    -0.01400
C1250       C  0.87239411  0.10317787  0.68934309     0.03570
C1251       C  0.80903930  0.07161916  0.76717338     0.38220
C1252       C  0.93383227  0.07977845  0.66893609     0.38210
C1253       C  0.87516597  0.13249971  0.66138321     0.36640
C1254       C  0.86199915  0.01237167  0.76630634     0.36640
N1255       N  0.87748130  0.15593572  0.63916775    -0.38180
N1256       N  0.85837484  0.98715830  0.78629803    -0.38180
N1257       N  0.96044813  0.08305435  0.65110656    -0.37630
N1258       N  0.78511579  0.07108746  0.78876020    -0.37630
C1259       C  0.65239445  0.10000851  0.89847960    -0.04300
C1260       C  0.61999113  0.08071160  0.90874058    -0.01410
C1261       C  0.62095290  0.05377236  0.93757805     0.03580
C1262       C  0.65493229  0.04516906  0.95625244    -0.04300
C1263       C  0.68745986  0.06523704  0.94574918    -0.01400
C1264       C  0.68604501  0.09235832  0.91701803     0.03570
C1265       C  0.58532944  0.08904523  0.88968851     0.38220
C1266       C  0.72247612  0.05926908  0.96491587     0.38210
C1267       C  0.71938536  0.11250417  0.90628292     0.36640
C1268       C  0.58640802  0.03546804  0.94761141     0.36640
N1269       N  0.74587337  0.12863755  0.89763838    -0.38180
N1270       N  0.55863257  0.02123081  0.95547981    -0.38180
N1271       N  0.75051923  0.05476376  0.98007239    -0.37630
N1272       N  0.55777498  0.09572457  0.87442644    -0.37630
loop_ 
_geom_bond_atom_site_label_1 
_geom_bond_atom_site_label_2 
_geom_bond_distance 
_geom_bond_site_symmetry_2 
_ccdc_geom_bond_type 
C1            C2   1.406       .  A
C1            C6   1.404       .  A
C1         C1259   1.484       .  S
C2            C3   1.402       .  A
C2            H7   1.084       .  S
C3            C4   1.399       .  A
C3           C48   1.469       .  S
C4            C5   1.398       .  A
C4            H8   1.086       .  S
C5            C6   1.400       .  A
C5           C30   1.467       .  S
C6            H9   1.083       .  S
C10          C11   1.411       .  A
C10          C15   1.409       .  A
C10        C1245   1.498       .  S
C11          C12   1.403       .  A
C11          H16   1.083       .  S
C12          C13   1.398       .  A
C12          C50   1.472       .  S
C13          C14   1.398       .  A
C13          H17   1.085       .  S
C14          C15   1.400       .  A
C14          C39   1.469       .  S
C15          H18   1.084       .  S
C19          C20   1.409       .  A
C19          C24   1.406       .  A
C19        C1231   1.492       .  S
C20          C21   1.402       .  A
C20          H25   1.083       .  S
C21          C22   1.398       .  A
C21          C41   1.470       .  S
C22          C23   1.397       .  A
C22          H26   1.086       .  S
C23          C24   1.398       .  A
C23          C32   1.466       .  S
C24          H27   1.084       .  S
C28          C29   1.408       .  A
C28          C33   1.406       .  A
C28        C1220   1.490       .  S
C29          C30   1.401       .  A
C29          H34   1.084       .  S
C30          C31   1.397       .  A
C31          C32   1.396       .  A
C31          H35   1.086       .  S
C32          C33   1.399       .  A
C33          H36   1.084       .  S
C37          C38   1.405       .  A
C37          C42   1.407       .  A
C37        C1203   1.486       .  S
C38          C39   1.400       .  A
C38          H43   1.084       .  S
C39          C40   1.398       .  A
C40          C41   1.400       .  A
C40          H44   1.086       .  S
C41          C42   1.402       .  A
C42          H45   1.084       .  S
C46          C47   1.406       .  A
C46          C51   1.408       .  A
C46        C1189   1.489       .  S
C47          C48   1.399       .  A
C47          H52   1.084       .  S
C48          C49   1.398       .  A
C49          C50   1.400       .  A
C49          H53   1.085       .  S
C50          C51   1.403       .  A
C51          H54   1.083       .  S
C55          C56   1.406       .  A
C55          C60   1.408       .  A
C55        C1175   1.488       .  S
C56          C57   1.398       .  A
C56          H61   1.084       .  S
C57          C58   1.396       .  A
C57         C102   1.469       .  S
C58          C59   1.400       .  A
C58          H62   1.085       .  S
C59          C60   1.400       .  A
C59          C84   1.468       .  S
C60          H63   1.084       .  S
C64          C65   1.408       .  A
C64          C69   1.410       .  A
C64        C1161   1.495       .  S
C65          C66   1.399       .  A
C65          H70   1.084       .  S
C66          C67   1.397       .  A
C66          C93   1.469       .  S
C67          C68   1.399       .  A
C67          H71   1.085       .  S
C68          C69   1.402       .  A
C68         C104   1.471       .  S
C69          H72   1.083       .  S
C73          C74   1.407       .  A
C73          C78   1.405       .  A
C73        C1147   1.488       .  S
C74          C75   1.401       .  A
C74          H79   1.084       .  S
C75          C76   1.398       .  A
C75          C95   1.466       .  S
C76          C77   1.395       .  A
C76          H80   1.084       .  S
C77          C78   1.400       .  A
C77          C86   1.467       .  S
C78          H81   1.084       .  S
C82          C83   1.412       .  A
C82          C87   1.409       .  A
C82        C1133   1.502       .  S
C83          C84   1.402       .  A
C83          H88   1.082       .  S
C84          C85   1.398       .  A
C85          C86   1.395       .  A
C85          H89   1.085       .  S
C86          C87   1.397       .  A
C87          H90   1.084       .  S
C91          C92   1.405       .  A
C91          C96   1.404       .  A
C91        C1119   1.483       .  S
C92          C93   1.402       .  A
C92          H97   1.084       .  S
C93          C94   1.398       .  A
C94          C95   1.398       .  A
C94          H98   1.085       .  S
C95          C96   1.400       .  A
C96          H99   1.084       .  S
C100        C101   1.406       .  A
C100        C105   1.409       .  A
C100       C1105   1.493       .  S
C101        C102   1.398       .  A
C101        H106   1.084       .  S
C102        C103   1.398       .  A
C103        C104   1.400       .  A
C103        H107   1.085       .  S
C104        C105   1.402       .  A
C105        H108   1.083       .  S
C109        C110   1.407       .  A
C109        C114   1.406       .  A
C109       C1091   1.486       .  S
C110        C111   1.401       .  A
C110        H115   1.084       .  S
C111        C112   1.401       .  A
C111        C156   1.472       .  S
C112        C113   1.401       .  A
C112        H116   1.085       .  S
C113        C114   1.399       .  A
C113        C138   1.471       .  S
C114        H117   1.084       .  S
C118        C119   1.405       .  A
C118        C123   1.406       .  A
C118       C1077   1.485       .  S
C119        C120   1.401       .  A
C119        H124   1.084       .  S
C120        C121   1.397       .  A
C120        C147   1.467       .  S
C121        C122   1.398       .  A
C121        H125   1.086       .  S
C122        C123   1.403       .  A
C122        C158   1.468       .  S
C123        H126   1.083       .  S
C127        C128   1.411       .  A
C127        C132   1.412       .  A
C127       C1063   1.500       .  S
C128        C129   1.399       .  A
C128        H133   1.083       .  S
C129        C130   1.396       .  A
C129        C149   1.466       .  S
C130        C131   1.393       .  A
C130        H134   1.086       .  S
C131        C132   1.403       .  A
C131        C140   1.470       .  S
C132        H135   1.083       .  S
C136        C137   1.411       .  A
C136        C141   1.410       .  A
C136       C1049   1.503       .  S
C137        C138   1.402       .  A
C137        H142   1.083       .  S
C138        C139   1.399       .  A
C139        C140   1.397       .  A
C139        H143   1.085       .  S
C140        C141   1.401       .  A
C141        H144   1.083       .  S
C145        C146   1.407       .  A
C145        C150   1.407       .  A
C145       C1035   1.491       .  S
C146        C147   1.398       .  A
C146        H151   1.083       .  S
C147        C148   1.396       .  A
C148        C149   1.400       .  A
C148        H152   1.086       .  S
C149        C150   1.399       .  A
C150        H153   1.084       .  S
C154        C155   1.411       .  A
C154        C159   1.408       .  A
C154       C1021   1.497       .  S
C155        C156   1.403       .  A
C155        H160   1.084       .  S
C156        C157   1.397       .  A
C157        C158   1.397       .  A
C157        H161   1.086       .  S
C158        C159   1.401       .  A
C159        H162   1.083       .  S
C163        C164   1.410       .  A
C163        C168   1.408       .  A
C163       C1010   1.494       .  S
C164        C165   1.403       .  A
C164        H169   1.084       .  S
C165        C166   1.398       .  A
C165        C192   1.473       .  S
C166        C167   1.399       .  A
C166        H170   1.085       .  S
C167        C168   1.401       .  A
C167        C212   1.470       .  S
C168        H171   1.084       .  S
C172        C173   1.411       .  A
C172        C177   1.411       .  A
C172        C993   1.500       .  S
C173        C174   1.399       .  A
C173        H178   1.083       .  S
C174        C175   1.396       .  A
C174        C201   1.468       .  S
C175        C176   1.396       .  A
C175        H179   1.085       .  S
C176        C177   1.402       .  A
C176        C210   1.469       .  S
C177        H180   1.084       .  S
C181        C182   1.408       .  A
C181        C186   1.407       .  A
C181        C979   1.489       .  S
C182        C183   1.402       .  A
C182        H187   1.084       .  S
C183        C184   1.399       .  A
C183        C194   1.472       .  S
C184        C185   1.399       .  A
C184        H188   1.085       .  S
C185        C186   1.401       .  A
C185        C203   1.471       .  S
C186        H189   1.084       .  S
C190        C191   1.407       .  A
C190        C195   1.406       .  A
C190        C965   1.488       .  S
C191        C192   1.402       .  A
C191        H196   1.084       .  S
C192        C193   1.401       .  A
C193        C194   1.401       .  A
C193        H197   1.085       .  S
C194        C195   1.402       .  A
C195        H198   1.084       .  S
C199        C200   1.405       .  A
C199        C204   1.407       .  A
C199        C951   1.484       .  S
C200        C201   1.398       .  A
C200        H205   1.084       .  S
C201        C202   1.400       .  A
C202        C203   1.399       .  A
C202        H206   1.085       .  S
C203        C204   1.401       .  A
C204        H207   1.084       .  S
C208        C209   1.407       .  A
C208        C213   1.410       .  A
C208        C937   1.497       .  S
C209        C210   1.401       .  A
C209        H214   1.084       .  S
C210        C211   1.396       .  A
C211        C212   1.399       .  A
C211        H215   1.085       .  S
C212        C213   1.404       .  A
C213        H216   1.083       .  S
C217        C218   1.409       .  A
C217        C222   1.407       .  A
C217        C923   1.488       .  S
C218        C219   1.403       .  A
C218        H223   1.083       .  S
C219        C220   1.397       .  A
C219        C248   1.470       .  S
C220        C221   1.396       .  A
C220        H224   1.086       .  S
C221        C222   1.398       .  A
C221        C264   1.466       .  S
C222        H225   1.084       .  S
C226        C227   1.406       .  A
C226        C231   1.406       .  A
C226        C909   1.486       .  S
C227        C228   1.401       .  A
C227        H232   1.084       .  S
C228        C229   1.398       .  A
C228        C266   1.469       .  S
C229        C230   1.399       .  A
C229        H233   1.086       .  S
C230        C231   1.400       .  A
C230        C255   1.467       .  S
C231        H234   1.084       .  S
C235        C236   1.406       .  A
C235        C240   1.405       .  A
C235        C898   1.486       .  S
C236        C237   1.401       .  A
C236        H241   1.084       .  S
C237        C238   1.398       .  A
C237        C257   1.468       .  S
C238        C239   1.399       .  A
C238        H242   1.085       .  S
C239        C240   1.400       .  A
C239        C246   1.468       .  S
C240        H243   1.084       .  S
C244        C245   1.403       .  A
C244        C249   1.405       .  A
C244        C884   1.482       .  S
C245        C246   1.399       .  A
C245        H250   1.084       .  S
C246        C247   1.399       .  A
C247        C248   1.401       .  A
C247        H251   1.085       .  S
C248        C249   1.402       .  A
C249        H252   1.084       .  S
C253        C254   1.408       .  A
C253        C258   1.409       .  A
C253        C867   1.492       .  S
C254        C255   1.401       .  A
C254        H259   1.083       .  S
C255        C256   1.397       .  A
C256        C257   1.396       .  A
C256        H260   1.086       .  S
C257        C258   1.401       .  A
C258        H261   1.084       .  S
C262        C263   1.403       .  A
C262        C267   1.405       .  A
C262        C856   1.482       .  S
C263        C264   1.398       .  A
C263        H268   1.084       .  S
C264        C265   1.400       .  A
C265        C266   1.400       .  A
C265        H269   1.085       .  S
C266        C267   1.401       .  A
C267        H270   1.083       .  S
C271        C272   1.409       .  A
C271        C276   1.404       .  A
C271        C839   1.491       .  S
C272        C273   1.405       .  A
C272        H277   1.084       .  S
C273        C274   1.400       .  A
C273        C300   1.471       .  S
C274        C275   1.395       .  A
C274        H278   1.087       .  S
C275        C276   1.400       .  A
C275        C318   1.469       .  S
C276        H279   1.082       .  S
C280        C281   1.408       .  A
C280        C285   1.409       .  A
C280        C828   1.492       .  S
C281        C282   1.399       .  A
C281        H286   1.084       .  S
C282        C283   1.395       .  A
C282        C309   1.471       .  S
C283        C284   1.401       .  A
C283        H287   1.085       .  S
C284        C285   1.401       .  A
C284        C320   1.469       .  S
C285        H288   1.084       .  S
C289        C290   1.410       .  A
C289        C294   1.413       .  A
C289        C811   1.499       .  S
C290        C291   1.400       .  A
C290        H295   1.083       .  S
C291        C292   1.395       .  A
C291        C302   1.471       .  S
C292        C293   1.399       .  A
C292        H296   1.085       .  S
C293        C294   1.404       .  A
C293        C311   1.473       .  S
C294        H297   1.084       .  S
C298        C299   1.409       .  A
C298        C303   1.410       .  A
C298        C797   1.497       .  S
C299        C300   1.401       .  A
C299        H304   1.083       .  S
C300        C301   1.398       .  A
C301        C302   1.399       .  A
C301        H305   1.086       .  S
C302        C303   1.402       .  A
C303        H306   1.083       .  S
C307        C308   1.410       .  A
C307        C312   1.411       .  A
C307        C783   1.503       .  S
C308        C309   1.401       .  A
C308        H313   1.083       .  S
C309        C310   1.400       .  A
C310        C311   1.398       .  A
C310        H314   1.085       .  S
C311        C312   1.401       .  A
C312        H315   1.083       .  S
C316        C317   1.414       .  A
C316        C321   1.414       .  A
C316        C769   1.511       .  S
C317        C318   1.402       .  A
C317        H322   1.079       .  S
C318        C319   1.395       .  A
C319        C320   1.394       .  A
C319        H323   1.086       .  S
C320        C321   1.400       .  A
C321        H324   1.083       .  S
C325        C326   1.412       .  A
C325        C330   1.411       .  A
C325        C755   1.503       .  S
C326        C327   1.401       .  A
C326        H331   1.082       .  S
C327        C328   1.398       .  A
C327        C354   1.469       .  S
C328        C329   1.395       .  A
C328        H332   1.086       .  S
C329        C330   1.399       .  A
C329        C372   1.469       .  S
C330        H333   1.082       .  S
C334        C335   1.405       .  A
C334        C339   1.405       .  A
C334        C744   1.483       .  S
C335        C336   1.399       .  A
C335        H340   1.084       .  S
C336        C337   1.397       .  A
C336        C363   1.465       .  S
C337        C338   1.396       .  A
C337        H341   1.086       .  S
C338        C339   1.400       .  A
C338        C374   1.465       .  S
C339        H342   1.084       .  S
C343        C344   1.411       .  A
C343        C348   1.411       .  A
C343        C730   1.500       .  S
C344        C345   1.403       .  A
C344        H349   1.082       .  S
C345        C346   1.396       .  A
C345        C356   1.472       .  S
C346        C347   1.398       .  A
C346        H350   1.086       .  S
C347        C348   1.402       .  A
C347        C365   1.470       .  S
C348        H351   1.083       .  S
C352        C353   1.410       .  A
C352        C357   1.409       .  A
C352        C713   1.499       .  S
C353        C354   1.400       .  A
C353        H358   1.083       .  S
C354        C355   1.402       .  A
C355        C356   1.396       .  A
C355        H359   1.086       .  S
C356        C357   1.399       .  A
C357        H360   1.083       .  S
C361        C362   1.404       .  A
C361        C366   1.408       .  A
C361        C702   1.488       .  S
C362        C363   1.397       .  A
C362        H367   1.084       .  S
C363        C364   1.397       .  A
C364        C365   1.399       .  A
C364        H368   1.086       .  S
C365        C366   1.403       .  A
C366        H369   1.084       .  S
C370        C371   1.407       .  A
C370        C375   1.405       .  A
C370        C688   1.488       .  S
C371        C372   1.403       .  A
C371        H376   1.083       .  S
C372        C373   1.397       .  A
C373        C374   1.397       .  A
C373        H377   1.086       .  S
C374        C375   1.400       .  A
C375        H378   1.084       .  S
C379        C380   1.408       .  A
C379        C384   1.405       .  A
C379        C674   1.487       .  S
C380        C381   1.401       .  A
C380        H385   1.084       .  S
C381        C382   1.397       .  A
C381        C426   1.468       .  S
C382        C383   1.397       .  A
C382        H386   1.085       .  S
C383        C384   1.398       .  A
C383        C417   1.464       .  S
C384        H387   1.085       .  S
C388        C389   1.407       .  A
C388        C393   1.409       .  A
C388        C657   1.490       .  S
C389        C390   1.399       .  A
C389        H394   1.085       .  S
C390        C391   1.401       .  A
C390        C408   1.470       .  S
C391        C392   1.398       .  A
C391        H395   1.084       .  S
C392        C393   1.401       .  A
C392        C428   1.473       .  S
C393        H396   1.084       .  S
C397        C398   1.408       .  A
C397        C402   1.410       .  A
C397        C643   1.497       .  S
C398        C399   1.398       .  A
C398        H403   1.085       .  S
C399        C400   1.396       .  A
C399        C419   1.463       .  S
C400        C401   1.395       .  A
C400        H404   1.084       .  S
C401        C402   1.402       .  A
C401        C410   1.467       .  S
C402        H405   1.083       .  S
C406        C407   1.412       .  A
C406        C411   1.411       .  A
C406        C629   1.503       .  S
C407        C408   1.400       .  A
C407        H412   1.083       .  S
C408        C409   1.395       .  A
C409        C410   1.397       .  A
C409        H413   1.084       .  S
C410        C411   1.400       .  A
C411        H414   1.083       .  S
C415        C416   1.403       .  A
C415        C420   1.401       .  A
C415        C615   1.479       .  S
C416        C417   1.400       .  A
C416        H421   1.085       .  S
C417        C418   1.398       .  A
C418        C419   1.396       .  A
C418        H422   1.084       .  S
C419        C420   1.398       .  A
C420        H423   1.085       .  S
C424        C425   1.404       .  A
C424        C429   1.407       .  A
C424        C604   1.485       .  S
C425        C426   1.398       .  A
C425        H430   1.084       .  S
C426        C427   1.400       .  A
C427        C428   1.401       .  A
C427        H431   1.085       .  S
C428        C429   1.403       .  A
C429        H432   1.084       .  S
O433        V441   1.894       .  S
O433        C443   1.263       .  A
O434        V441   1.892       .  S
O434        C444   1.263       .  A
O435        V441   1.892       .  S
O435        C445   1.263       .  A
O436        V441   1.892       .  S
O436        C446   1.263       .  A
O437        V442   1.907       .  S
O437        C446   1.267       .  A
O438        V442   1.907       .  S
O438        C445   1.266       .  A
O439        V442   1.906       .  S
O439        C444   1.266       .  A
O440        V442   1.903       .  S
O440        C443   1.265       .  A
V441        V442   2.081       .  T
C443        C716   1.482       .  S
C444        C881   1.511       .  S
C445        C800   1.490       .  S
C446        C601   1.504       .  S
O447        V455   1.887       .  S
O447        C457   1.262       .  A
O448        V455   1.891       .  S
O448        C458   1.263       .  A
O449        V455   1.890       .  S
O449        C459   1.262       .  A
O450        V455   1.890       .  S
O450        C460   1.263       .  A
O451        V456   1.904       .  S
O451        C460   1.265       .  A
O452        V456   1.904       .  S
O452        C459   1.266       .  A
O453        V456   1.902       .  S
O453        C458   1.265       .  A
O454        V456   1.903       .  S
O454        C457   1.266       .  A
V455        V456   2.082       .  T
C457        C618   1.506       .  S
C458       C1038   1.483       .  S
C459        C853   1.503       .  S
C460       C1108   1.488       .  S
O461        V469   1.908       .  S
O461        C471   1.266       .  A
O462        V469   1.907       .  S
O462        C472   1.268       .  A
O463        V469   1.909       .  S
O463        C473   1.267       .  A
O464        V469   1.910       .  S
O464        C474   1.266       .  A
O465        V470   1.895       .  S
O465        C474   1.263       .  A
O466        V470   1.891       .  S
O466        C473   1.263       .  A
O467        V470   1.891       .  S
O467        C472   1.263       .  A
O468        V470   1.888       .  S
O468        C471   1.264       .  A
V469        V470   2.079       .  T
C471        C699   1.491       .  S
C472       C1122   1.505       .  S
C473       C1192   1.495       .  S
C474        C632   1.485       .  S
O475        V483   1.896       .  S
O475        C485   1.265       .  A
O476        V483   1.892       .  S
O476        C486   1.263       .  A
O477        V483   1.897       .  S
O477        C487   1.264       .  A
O478        V483   1.893       .  S
O478        C488   1.262       .  A
O479        V484   1.909       .  S
O479        C488   1.266       .  A
O480        V484   1.903       .  S
O480        C487   1.266       .  A
O481        V484   1.908       .  S
O481        C486   1.267       .  A
O482        V484   1.906       .  S
O482        C485   1.266       .  A
V483        V484   2.082       .  T
C485        C685   1.504       .  S
C486        C968   1.501       .  S
C487       C1206   1.506       .  S
C488        C786   1.484       .  S
O489        V497   1.901       .  S
O489        C499   1.264       .  A
O490        V497   1.897       .  S
O490        C500   1.264       .  A
O491        V497   1.891       .  S
O491        C501   1.264       .  A
O492        V497   1.891       .  S
O492        C502   1.262       .  A
O493        V498   1.908       .  S
O493        C502   1.268       .  A
O494        V498   1.910       .  S
O494        C501   1.266       .  A
O495        V498   1.903       .  S
O495        C500   1.265       .  A
O496        V498   1.908       .  S
O496        C499   1.265       .  A
V497        V498   2.085       .  T
C499        C772   1.483       .  S
C500       C1024   1.489       .  S
C501        C940   1.492       .  S
C502        C870   1.496       .  S
O503        V511   1.907       .  S
O503        C513   1.266       .  A
O504        V511   1.911       .  S
O504        C514   1.269       .  A
O505        V511   1.901       .  S
O505        C515   1.263       .  A
O506        V511   1.899       .  S
O506        C516   1.264       .  A
O507        V512   1.897       .  S
O507        C516   1.265       .  A
O508        V512   1.899       .  S
O508        C515   1.265       .  A
O509        V512   1.886       .  S
O509        C514   1.261       .  A
O510        V512   1.890       .  S
O510        C513   1.262       .  A
V511        V512   2.084       .  T
C513       C1052   1.487       .  S
C514       C1217   1.498       .  S
C515       C1136   1.479       .  S
C516        C954   1.504       .  S
O517        V525   1.900   1_445  S
O517        C527   1.265       .  A
O518        V525   1.895       .  S
O518        C528   1.264       .  A
O519        V525   1.891   1_455  S
O519        C529   1.263       .  A
O520        V525   1.891       .  S
O520        C530   1.262   1_565  A
O521        V526   1.904   1_545  S
O521        C530   1.267       .  A
O522        V526   1.906   1_455  S
O522        C529   1.266       .  A
O523        V526   1.902       .  S
O523        C528   1.265       .  A
O524        V526   1.899   1_445  S
O524        C527   1.264       .  A
V525        V526   2.083       .  T
C527        C646   1.485       .  S
C528        C825   1.489       .  S
C529        C912   1.502       .  S
C530        C741   1.500       .  S
O531        V539   1.906   1_445  S
O531        C541   1.266       .  A
O532        V539   1.907       .  S
O532        C542   1.267       .  A
O533        V539   1.905   1_455  S
O533        C543   1.266       .  A
O534        V539   1.903   1_545  S
O534        C544   1.265       .  A
O535        V540   1.896   1_545  S
O535        C544   1.264       .  A
O536        V540   1.896   1_455  S
O536        C543   1.264       .  A
O537        V540   1.894       .  S
O537        C542   1.264       .  A
O538        V540   1.896   1_445  S
O538        C541   1.264       .  A
V539        V540   2.082       .  T
C541       C1164   1.494       .  S
C542       C1007   1.499       .  S
C543       C1080   1.510       .  S
C544       C1248   1.489       .  S
O545        V553   1.894   1_546  S
O545        C555   1.264       .  A
O546        V553   1.899       .  S
O546        C556   1.265       .  A
O547        V553   1.894   1_556  S
O547        C557   1.264       .  A
O548        V553   1.892   1_545  S
O548        C558   1.263       .  A
O549        V554   1.903   1_545  S
O549        C558   1.266       .  A
O550        V554   1.905   1_556  S
O550        C557   1.266       .  A
O551        V554   1.900       .  S
O551        C556   1.265       .  A
O552        V554   1.905   1_545  S
O552        C555   1.266   1_554  A
V553        V554   2.082       .  T
C555       C1150   1.497       .  S
C556        C895   1.501       .  S
C557       C1094   1.502       .  S
C558        C660   1.489       .  S
O559        V567   1.908   1_556  S
O559        C569   1.267       .  A
O560        V567   1.911   1_455  S
O560        C570   1.269       .  A
O561        V567   1.900       .  S
O561        C571   1.263       .  A
O562        V567   1.901   1_456  S
O562        C572   1.265       .  A
O563        V568   1.894   1_456  S
O563        C572   1.264       .  A
O564        V568   1.900       .  S
O564        C571   1.264       .  A
O565        V568   1.884   1_455  S
O565        C570   1.260       .  A
O566        V568   1.886       .  S
O566        C569   1.262   1_554  A
V567        V568   2.084       .  T
C569       C1234   1.490       .  S
C570        C671   1.501       .  S
C571        C758   1.480       .  S
C572       C1178   1.494       .  S
O573        V581   1.907   1_546  S
O573        C583   1.267       .  A
O574        V581   1.907       .  S
O574        C584   1.266       .  A
O575        V581   1.905   1_556  S
O575        C585   1.265       .  A
O576        V581   1.904   1_545  S
O576        C586   1.265       .  A
O577        V582   1.899   1_545  S
O577        C586   1.264       .  A
O578        V582   1.899   1_556  S
O578        C585   1.264       .  A
O579        V582   1.895       .  S
O579        C584   1.265       .  A
O580        V582   1.894   1_545  S
O580        C583   1.263   1_554  A
V581        V582   2.081       .  T
C583       C1262   1.508       .  S
C584        C842   1.503       .  S
C585        C996   1.489       .  S
C586        C727   1.487       .  S
O587        V595   1.901   1_456  S
O587        C597   1.265       .  A
O588        V595   1.898       .  S
O588        C598   1.264       .  A
O589        V595   1.898   1_455  S
O589        C599   1.266       .  A
O590        V595   1.900   1_556  S
O590        C600   1.265       .  A
O591        V596   1.904   1_556  S
O591        C600   1.267       .  A
O592        V596   1.903   1_455  S
O592        C599   1.265       .  A
O593        V596   1.904       .  S
O593        C598   1.265       .  A
O594        V596   1.908   1_456  S
O594        C597   1.266       .  A
V595        V596   2.082       .  T
C597       C1066   1.494       .  S
C598        C814   1.487       .  S
C599        C926   1.501       .  S
C600        C982   1.506       .  S
C601        C602   1.425       .  A
C601        C606   1.422       .  A
C602        C603   1.410       .  A
C602        C607   1.451       .  S
C603        C604   1.406       .  A
C603        C610   1.453       .  S
C604        C605   1.410       .  A
C605        C606   1.413       .  A
C605        C608   1.452       .  S
C606        C609   1.452       .  S
C607        N614   1.158       .  T
C608        N613   1.157       .  T
C609        N611   1.158       .  T
C610        N612   1.157       .  T
C615        C616   1.407       .  A
C615        C620   1.403       .  A
C616        C617   1.412       .  A
C616        C621   1.453       .  S
C617        C618   1.426       .  A
C617        C624   1.452       .  S
C618        C619   1.429       .  A
C619        C620   1.409       .  A
C619        C622   1.452       .  S
C620        C623   1.453       .  S
C621        N628   1.157       .  T
C622        N627   1.158       .  T
C623        N625   1.157       .  T
C624        N626   1.158       .  T
C629        C630   1.419       .  A
C629        C634   1.422       .  A
C630        C631   1.409       .  A
C630        C635   1.452       .  S
C631        C632   1.410       .  A
C631        C638   1.450       .  S
C632        C633   1.409       .  A
C633        C634   1.412       .  A
C633        C636   1.448       .  S
C634        C637   1.452       .  S
C635        N642   1.157       .  T
C636        N641   1.156       .  T
C637        N639   1.158       .  T
C638        N640   1.156       .  T
C643        C644   1.419       .  A
C643        C648   1.416       .  A
C644        C645   1.413       .  A
C644        C649   1.452       .  S
C645        C646   1.413       .  A
C645        C652   1.452       .  S
C646        C647   1.410       .  A
C647        C648   1.408       .  A
C647        C650   1.449       .  S
C648        C651   1.453       .  S
C649        N656   1.158       .  T
C650        N655   1.156   1_455  T
C651        N653   1.157       .  T
C652        N654   1.157   1_545  T
C657        C658   1.414       .  A
C657        C662   1.412       .  A
C658        C659   1.410       .  A
C658        C663   1.449       .  S
C659        C660   1.415       .  A
C659        C666   1.452       .  S
C660        C661   1.418       .  A
C661        C662   1.410       .  A
C661        C664   1.452       .  S
C662        C665   1.452       .  S
C663        N670   1.156       .  T
C664        N669   1.157   1_545  T
C665        N667   1.157       .  T
C666        N668   1.157       .  T
C671        C672   1.420       .  A
C671        C676   1.426       .  A
C672        C673   1.412       .  A
C672        C677   1.450       .  S
C673        C674   1.410       .  A
C673        C680   1.450       .  S
C674        C675   1.408       .  A
C675        C676   1.410       .  A
C675        C678   1.453       .  S
C676        C679   1.452       .  S
C677        N684   1.157       .  T
C678        N683   1.157       .  T
C679        N681   1.158       .  T
C680        N682   1.156       .  T
C685        C686   1.423       .  A
C685        C690   1.423       .  A
C686        C687   1.410       .  A
C686        C691   1.451       .  S
C687        C688   1.408       .  A
C687        C694   1.453       .  S
C688        C689   1.411       .  A
C689        C690   1.414       .  A
C689        C692   1.452       .  S
C690        C693   1.451       .  S
C691        N698   1.157       .  T
C692        N697   1.157       .  T
C693        N695   1.158       .  T
C694        N696   1.157       .  T
C699        C700   1.416       .  A
C699        C704   1.417       .  A
C700        C701   1.413       .  A
C700        C705   1.450       .  S
C701        C702   1.415       .  A
C701        C708   1.452       .  S
C702        C703   1.412       .  A
C703        C704   1.407       .  A
C703        C706   1.452       .  S
C704        C707   1.453       .  S
C705        N712   1.158       .  T
C706        N711   1.157       .  T
C707        N709   1.157       .  T
C708        N710   1.157       .  T
C713        C714   1.418       .  A
C713        C718   1.421       .  A
C714        C715   1.406       .  A
C714        C719   1.453       .  S
C715        C716   1.409       .  A
C715        C722   1.449       .  S
C716        C717   1.411       .  A
C717        C718   1.413       .  A
C717        C720   1.452       .  S
C718        C721   1.451       .  S
C719        N726   1.157       .  T
C720        N725   1.157       .  T
C721        N723   1.157       .  T
C722        N724   1.156       .  T
C727        C728   1.413       .  A
C727        C732   1.412       .  A
C728        C729   1.412       .  A
C728        C733   1.452       .  S
C729        C730   1.417       .  A
C729        C736   1.452       .  S
C730        C731   1.419       .  A
C731        C732   1.413       .  A
C731        C734   1.451       .  S
C732        C735   1.452       .  S
C733        N740   1.157       .  T
C734        N739   1.157       .  T
C735        N737   1.157   1_545  T
C736        N738   1.157       .  T
C741        C742   1.421       .  A
C741        C746   1.424       .  A
C742        C743   1.411       .  A
C742        C747   1.452       .  S
C743        C744   1.409       .  A
C743        C750   1.451       .  S
C744        C745   1.407       .  A
C745        C746   1.409       .  A
C745        C748   1.453       .  S
C746        C749   1.451       .  S
C747        N754   1.158       .  T
C748        N753   1.157       .  T
C749        N751   1.158       .  T
C750        N752   1.157       .  T
C755        C756   1.420       .  A
C755        C760   1.423       .  A
C756        C757   1.407       .  A
C756        C761   1.452       .  S
C757        C758   1.406       .  A
C757        C764   1.449       .  S
C758        C759   1.410       .  A
C759        C760   1.413       .  A
C759        C762   1.452       .  S
C760        C763   1.451       .  S
C761        N768   1.157       .  T
C762        N767   1.157       .  T
C763        N765   1.158       .  T
C764        N766   1.156       .  T
C769        C770   1.425       .  A
C769        C774   1.423       .  A
C770        C771   1.412       .  A
C770        C775   1.452       .  S
C771        C772   1.407       .  A
C771        C778   1.448       .  S
C772        C773   1.406       .  A
C773        C774   1.410       .  A
C773        C776   1.448       .  S
C774        C777   1.451       .  S
C775        N782   1.158       .  T
C776        N781   1.156       .  T
C777        N779   1.158       .  T
C778        N780   1.156       .  T
C783        C784   1.419       .  A
C783        C788   1.421       .  A
C784        C785   1.411       .  A
C784        C789   1.451       .  S
C785        C786   1.411       .  A
C785        C792   1.453       .  S
C786        C787   1.409       .  A
C787        C788   1.413       .  A
C787        C790   1.449       .  S
C788        C791   1.452       .  S
C789        N796   1.157       .  T
C790        N795   1.156       .  T
C791        N793   1.158       .  T
C792        N794   1.157       .  T
C797        C798   1.415       .  A
C797        C802   1.419       .  A
C798        C799   1.410       .  A
C798        C803   1.452       .  S
C799        C800   1.415       .  A
C799        C806   1.453       .  S
C800        C801   1.414       .  A
C801        C802   1.413       .  A
C801        C804   1.451       .  S
C802        C805   1.452       .  S
C803        N810   1.157       .  T
C804        N809   1.158       .  T
C805        N807   1.158       .  T
C806        N808   1.157       .  T
C811        C812   1.417       .  A
C811        C816   1.419       .  A
C812        C813   1.413       .  A
C812        C817   1.451       .  S
C813        C814   1.413       .  A
C813        C820   1.452       .  S
C814        C815   1.412       .  A
C815        C816   1.411       .  A
C815        C818   1.452       .  S
C816        C819   1.452       .  S
C817        N824   1.157       .  T
C818        N823   1.157       .  T
C819        N821   1.157       .  T
C820        N822   1.157       .  T
C825        C826   1.417       .  A
C825        C830   1.414       .  A
C826        C827   1.410       .  A
C826        C831   1.452       .  S
C827        C828   1.413       .  A
C827        C834   1.452       .  S
C828        C829   1.416       .  A
C829        C830   1.411       .  A
C829        C832   1.452       .  S
C830        C833   1.450       .  S
C831        N838   1.157       .  T
C832        N837   1.157       .  T
C833        N835   1.157       .  T
C834        N836   1.157       .  T
C839        C840   1.411       .  A
C839        C844   1.410       .  A
C840        C841   1.415       .  A
C840        C845   1.452       .  S
C841        C842   1.422       .  A
C841        C848   1.450       .  S
C842        C843   1.421       .  A
C843        C844   1.411       .  A
C843        C846   1.452       .  S
C844        C847   1.453       .  S
C845        N852   1.157       .  T
C846        N851   1.158       .  T
C847        N849   1.157       .  T
C848        N850   1.158       .  T
C853        C854   1.423       .  A
C853        C858   1.426       .  A
C854        C855   1.412       .  A
C854        C859   1.452       .  S
C855        C856   1.409       .  A
C855        C862   1.453       .  S
C856        C857   1.405       .  A
C857        C858   1.409       .  A
C857        C860   1.453       .  S
C858        C861   1.451       .  S
C859        N866   1.158       .  T
C860        N865   1.157       .  T
C861        N863   1.158       .  T
C862        N864   1.157       .  T
C867        C868   1.412       .  A
C867        C872   1.414       .  A
C868        C869   1.411       .  A
C868        C873   1.452       .  S
C869        C870   1.420       .  A
C869        C876   1.453       .  S
C870        C871   1.417       .  A
C871        C872   1.413       .  A
C871        C874   1.452       .  S
C872        C875   1.452       .  S
C873        N880   1.157       .  T
C874        N879   1.157       .  T
C875        N877   1.158       .  T
C876        N878   1.158       .  T
C881        C882   1.429       .  A
C881        C886   1.427       .  A
C882        C883   1.411       .  A
C882        C887   1.452       .  S
C883        C884   1.403       .  A
C883        C890   1.453       .  S
C884        C885   1.407       .  A
C885        C886   1.413       .  A
C885        C888   1.453       .  S
C886        C889   1.451       .  S
C887        N894   1.158       .  T
C888        N893   1.157       .  T
C889        N891   1.158       .  T
C890        N892   1.157       .  T
C895        C896   1.422       .  A
C895        C900   1.422       .  A
C896        C897   1.411       .  A
C896        C901   1.450       .  S
C897        C898   1.408       .  A
C897        C904   1.453       .  S
C898        C899   1.410       .  A
C899        C900   1.412       .  A
C899        C902   1.453       .  S
C900        C903   1.452       .  S
C901        N908   1.157       .  T
C902        N907   1.157       .  T
C903        N905   1.158       .  T
C904        N906   1.157       .  T
C909        C910   1.411       .  A
C909        C914   1.408       .  A
C910        C911   1.413       .  A
C910        C915   1.452       .  S
C911        C912   1.422       .  A
C911        C918   1.451       .  S
C912        C913   1.424       .  A
C913        C914   1.410       .  A
C913        C916   1.452       .  S
C914        C917   1.453       .  S
C915        N922   1.157       .  T
C916        N921   1.158       .  T
C917        N919   1.157       .  T
C918        N920   1.157       .  T
C923        C924   1.411       .  A
C923        C928   1.409       .  A
C924        C925   1.410       .  A
C924        C929   1.453       .  S
C925        C926   1.421       .  A
C925        C932   1.452       .  S
C926        C927   1.422       .  A
C927        C928   1.413       .  A
C927        C930   1.450       .  S
C928        C931   1.452       .  S
C929        N936   1.157       .  T
C930        N935   1.157       .  T
C931        N933   1.157       .  T
C932        N934   1.158       .  T
C937        C938   1.414       .  A
C937        C942   1.417       .  A
C938        C939   1.410       .  A
C938        C943   1.452       .  S
C939        C940   1.415       .  A
C939        C946   1.453       .  S
C940        C941   1.413       .  A
C941        C942   1.414       .  A
C941        C944   1.451       .  S
C942        C945   1.449       .  S
C943        N950   1.157       .  T
C944        N949   1.158       .  T
C945        N947   1.156       .  T
C946        N948   1.157       .  T
C951        C952   1.409       .  A
C951        C956   1.407       .  A
C952        C953   1.411       .  A
C952        C957   1.454       .  S
C953        C954   1.425       .  A
C953        C960   1.451       .  S
C954        C955   1.425       .  A
C955        C956   1.411       .  A
C955        C958   1.452       .  S
C956        C959   1.452       .  S
C957        N964   1.157       .  T
C958        N963   1.158       .  T
C959        N961   1.157       .  T
C960        N962   1.157       .  T
C965        C966   1.410       .  A
C965        C970   1.407       .  A
C966        C967   1.413       .  A
C966        C971   1.450       .  S
C967        C968   1.420       .  A
C967        C974   1.451       .  S
C968        C969   1.423       .  A
C969        C970   1.411       .  A
C969        C972   1.452       .  S
C970        C973   1.452       .  S
C971        N978   1.156       .  T
C972        N977   1.157       .  T
C973        N975   1.157       .  T
C974        N976   1.158       .  T
C979        C980   1.408       .  A
C979        C984   1.409       .  A
C980        C981   1.413       .  A
C980        C985   1.452       .  S
C981        C982   1.424       .  A
C981        C988   1.451       .  S
C982        C983   1.424       .  A
C983        C984   1.413       .  A
C983        C986   1.451       .  S
C984        C987   1.453       .  S
C985        N992   1.157       .  T
C986        N991   1.158       .  T
C987        N989   1.157       .  T
C988        N990   1.158       .  T
C993        C994   1.419       .  A
C993        C998   1.417       .  A
C994        C995   1.412       .  A
C994        C999   1.453       .  S
C995        C996   1.412       .  A
C995       C1002   1.449       .  S
C996        C997   1.413       .  A
C997        C998   1.411       .  A
C997       C1000   1.450       .  S
C998       C1001   1.452       .  S
C999       N1006   1.158       .  T
C1000      N1005   1.157       .  T
C1001      N1003   1.157       .  T
C1002      N1004   1.156   1_556  T
C1007      C1008   1.419       .  A
C1007      C1012   1.420       .  A
C1008      C1009   1.414       .  A
C1008      C1013   1.451       .  S
C1009      C1010   1.414       .  A
C1009      C1016   1.452       .  S
C1010      C1011   1.412       .  A
C1011      C1012   1.411       .  A
C1011      C1014   1.452       .  S
C1012      C1015   1.452       .  S
C1013      N1020   1.157       .  T
C1014      N1019   1.157       .  T
C1015      N1017   1.157       .  T
C1016      N1018   1.157       .  T
C1021      C1022   1.415       .  A
C1021      C1026   1.415       .  A
C1022      C1023   1.412       .  A
C1022      C1027   1.449       .  S
C1023      C1024   1.414       .  A
C1023      C1030   1.452       .  S
C1024      C1025   1.415       .  A
C1025      C1026   1.412       .  A
C1025      C1028   1.452       .  S
C1026      C1029   1.451       .  S
C1027      N1034   1.156       .  T
C1028      N1033   1.157       .  T
C1029      N1031   1.157       .  T
C1030      N1032   1.157       .  T
C1035      C1036   1.418       .  A
C1035      C1040   1.414       .  A
C1036      C1037   1.411       .  A
C1036      C1041   1.452       .  S
C1037      C1038   1.413       .  A
C1037      C1044   1.452       .  S
C1038      C1039   1.412       .  A
C1039      C1040   1.406       .  A
C1039      C1042   1.450       .  S
C1040      C1043   1.453       .  S
C1041      N1048   1.158       .  T
C1042      N1047   1.156       .  T
C1043      N1045   1.157       .  T
C1044      N1046   1.157       .  T
C1049      C1050   1.418       .  A
C1049      C1054   1.421       .  A
C1050      C1051   1.410       .  A
C1050      C1055   1.452       .  S
C1051      C1052   1.413       .  A
C1051      C1058   1.453       .  S
C1052      C1053   1.411       .  A
C1053      C1054   1.413       .  A
C1053      C1056   1.453       .  S
C1054      C1057   1.449       .  S
C1055      N1062   1.157       .  T
C1056      N1061   1.158       .  T
C1057      N1059   1.156       .  T
C1058      N1060   1.157       .  T
C1063      C1064   1.416       .  A
C1063      C1068   1.418       .  A
C1064      C1065   1.413       .  A
C1064      C1069   1.452       .  S
C1065      C1066   1.414       .  A
C1065      C1072   1.448       .  S
C1066      C1067   1.414       .  A
C1067      C1068   1.411       .  A
C1067      C1070   1.449       .  S
C1068      C1071   1.453       .  S
C1069      N1076   1.157       .  T
C1070      N1075   1.156   1_455  T
C1071      N1073   1.158       .  T
C1072      N1074   1.156   1_556  T
C1077      C1078   1.408       .  A
C1077      C1082   1.405       .  A
C1078      C1079   1.414       .  A
C1078      C1083   1.453       .  S
C1079      C1080   1.426       .  A
C1079      C1086   1.451       .  S
C1080      C1081   1.428       .  A
C1081      C1082   1.412       .  A
C1081      C1084   1.451       .  S
C1082      C1085   1.453       .  S
C1083      N1090   1.157       .  T
C1084      N1089   1.158       .  T
C1085      N1087   1.157       .  T
C1086      N1088   1.158       .  T
C1091      C1092   1.407       .  A
C1091      C1096   1.410       .  A
C1092      C1093   1.410       .  A
C1092      C1097   1.453       .  S
C1093      C1094   1.423       .  A
C1093      C1100   1.450       .  S
C1094      C1095   1.422       .  A
C1095      C1096   1.413       .  A
C1095      C1098   1.450       .  S
C1096      C1099   1.453       .  S
C1097      N1104   1.157       .  T
C1098      N1103   1.157       .  T
C1099      N1101   1.157       .  T
C1100      N1102   1.157       .  T
C1105      C1106   1.417       .  A
C1105      C1110   1.415       .  A
C1106      C1107   1.412       .  A
C1106      C1111   1.452       .  S
C1107      C1108   1.415       .  A
C1107      C1114   1.451       .  S
C1108      C1109   1.415       .  A
C1109      C1110   1.408       .  A
C1109      C1112   1.453       .  S
C1110      C1113   1.452       .  S
C1111      N1118   1.158       .  T
C1112      N1117   1.157       .  T
C1113      N1115   1.157       .  T
C1114      N1116   1.157       .  T
C1119      C1120   1.409       .  A
C1119      C1124   1.405       .  A
C1120      C1121   1.413       .  A
C1120      C1125   1.452       .  S
C1121      C1122   1.424       .  A
C1121      C1128   1.451       .  S
C1122      C1123   1.427       .  A
C1123      C1124   1.410       .  A
C1123      C1126   1.452       .  S
C1124      C1127   1.453       .  S
C1125      N1132   1.157       .  T
C1126      N1131   1.158       .  T
C1127      N1129   1.157       .  T
C1128      N1130   1.158       .  T
C1133      C1134   1.420       .  A
C1133      C1138   1.423       .  A
C1134      C1135   1.404       .  A
C1134      C1139   1.452       .  S
C1135      C1136   1.404       .  A
C1135      C1142   1.447       .  S
C1136      C1137   1.410       .  A
C1137      C1138   1.414       .  A
C1137      C1140   1.451       .  S
C1138      C1141   1.451       .  S
C1139      N1146   1.157       .  T
C1140      N1145   1.157       .  T
C1141      N1143   1.158       .  T
C1142      N1144   1.156       .  T
C1147      C1148   1.412       .  A
C1147      C1152   1.410       .  A
C1148      C1149   1.413       .  A
C1148      C1153   1.452       .  S
C1149      C1150   1.419       .  A
C1149      C1156   1.450       .  S
C1150      C1151   1.420       .  A
C1151      C1152   1.410       .  A
C1151      C1154   1.452       .  S
C1152      C1155   1.452       .  S
C1153      N1160   1.157       .  T
C1154      N1159   1.157   1_556  T
C1155      N1157   1.157       .  T
C1156      N1158   1.157       .  T
C1161      C1162   1.414       .  A
C1161      C1166   1.416       .  A
C1162      C1163   1.410       .  A
C1162      C1167   1.452       .  S
C1163      C1164   1.416       .  A
C1163      C1170   1.451       .  S
C1164      C1165   1.417       .  A
C1165      C1166   1.414       .  A
C1165      C1168   1.451       .  S
C1166      C1169   1.452       .  S
C1167      N1174   1.157       .  T
C1168      N1173   1.157       .  T
C1169      N1171   1.158       .  T
C1170      N1172   1.157   1_545  T
C1175      C1176   1.412       .  A
C1175      C1180   1.413       .  A
C1176      C1177   1.409       .  A
C1176      C1181   1.452       .  S
C1177      C1178   1.418       .  A
C1177      C1184   1.452       .  S
C1178      C1179   1.418       .  A
C1179      C1180   1.411       .  A
C1179      C1182   1.450       .  S
C1180      C1183   1.453       .  S
C1181      N1188   1.157       .  T
C1182      N1187   1.157       .  T
C1183      N1185   1.157       .  T
C1184      N1186   1.157   1_455  T
C1189      C1190   1.410       .  A
C1189      C1194   1.413       .  A
C1190      C1191   1.409       .  A
C1190      C1195   1.452       .  S
C1191      C1192   1.419       .  A
C1191      C1198   1.452       .  S
C1192      C1193   1.418       .  A
C1193      C1194   1.414       .  A
C1193      C1196   1.451       .  S
C1194      C1197   1.452       .  S
C1195      N1202   1.157       .  T
C1196      N1201   1.158       .  T
C1197      N1199   1.157       .  T
C1198      N1200   1.157       .  T
C1203      C1204   1.408       .  A
C1203      C1208   1.407       .  A
C1204      C1205   1.413       .  A
C1204      C1209   1.451       .  S
C1205      C1206   1.424       .  A
C1205      C1212   1.452       .  S
C1206      C1207   1.425       .  A
C1207      C1208   1.411       .  A
C1207      C1210   1.451       .  S
C1208      C1211   1.453       .  S
C1209      N1216   1.157       .  T
C1210      N1215   1.157       .  T
C1211      N1213   1.157       .  T
C1212      N1214   1.158       .  T
C1217      C1218   1.423       .  A
C1217      C1222   1.418       .  A
C1218      C1219   1.410       .  A
C1218      C1223   1.452       .  S
C1219      C1220   1.410       .  A
C1219      C1226   1.453       .  S
C1220      C1221   1.413       .  A
C1221      C1222   1.412       .  A
C1221      C1224   1.451       .  S
C1222      C1225   1.451       .  S
C1223      N1230   1.158       .  T
C1224      N1229   1.157       .  T
C1225      N1227   1.157       .  T
C1226      N1228   1.157       .  T
C1231      C1232   1.413       .  A
C1231      C1236   1.416       .  A
C1232      C1233   1.408       .  A
C1232      C1237   1.452       .  S
C1233      C1234   1.417       .  A
C1233      C1240   1.453       .  S
C1234      C1235   1.415       .  A
C1235      C1236   1.413       .  A
C1235      C1238   1.451       .  S
C1236      C1239   1.452       .  S
C1237      N1244   1.157       .  T
C1238      N1243   1.157       .  T
C1239      N1241   1.157       .  T
C1240      N1242   1.157   1_556  T
C1245      C1246   1.418       .  A
C1245      C1250   1.416       .  A
C1246      C1247   1.413       .  A
C1246      C1251   1.452       .  S
C1247      C1248   1.414       .  A
C1247      C1254   1.452       .  S
C1248      C1249   1.414       .  A
C1249      C1250   1.411       .  A
C1249      C1252   1.452       .  S
C1250      C1253   1.452       .  S
C1251      N1258   1.158       .  T
C1252      N1257   1.157       .  T
C1253      N1255   1.157       .  T
C1254      N1256   1.157   1_545  T
C1259      C1260   1.405       .  A
C1259      C1264   1.408       .  A
C1260      C1261   1.411       .  A
C1260      C1265   1.453       .  S
C1261      C1262   1.427       .  A
C1261      C1268   1.451       .  S
C1262      C1263   1.425       .  A
C1263      C1264   1.413       .  A
C1263      C1266   1.451       .  S
C1264      C1267   1.453       .  S
C1265      N1272   1.157       .  T
C1266      N1271   1.158       .  T
C1267      N1269   1.157       .  T
C1268      N1270   1.158       .  T
