geometry optimzed in LAMMPS
_audit_creation_date              2020-11-30 
_audit_creation_method            'lammps2cif' 
_symmetry_space_group_name_H-M    'P1' 
_symmetry_Int_Tables_number       1 
_symmetry_cell_setting            triclinic 
loop_ 
_symmetry_equiv_pos_as_xyz 
  x,y,z 
_cell_length_a                    46.29756963 
_cell_length_b                    45.90931282395335 
_cell_length_c                    45.880597652752 
_cell_angle_alpha                 90.14221386040303 
_cell_angle_beta                  89.81798834664949 
_cell_angle_gamma                 90.03477099865334 
loop_ 
_atom_site_label 
_atom_site_type_symbol 
_atom_site_fract_x 
_atom_site_fract_y 
_atom_site_fract_z 
_atom_site_charge 
C1          C  0.79208721  0.51963480  0.72119526     0.03400
C2          C  0.81794049  0.50339713  0.71894712     0.03400
C3          C  0.82994767  0.49123466  0.74444082    -0.17100
C4          C  0.81717065  0.49579670  0.77214206     0.03400
C5          C  0.79111649  0.51195023  0.77391165     0.03400
C6          C  0.77961358  0.52424846  0.74863240    -0.17100
H7          H  0.75944086  0.53624214  0.75012781     0.05400
H8          H  0.84992165  0.47901658  0.74283758     0.05400
C9          C  0.49769025  0.72833401  0.79139765     0.03400
C10         C  0.49985404  0.72479447  0.82195835     0.03400
C11         C  0.50300791  0.74986683  0.83963124    -0.17100
C12         C  0.50427146  0.77804147  0.82724295     0.03400
C13         C  0.50326912  0.78108815  0.79660521     0.03400
C14         C  0.49942928  0.75618677  0.77932637    -0.17100
H15         H  0.49702052  0.75849994  0.75593431     0.05400
H16         H  0.50375538  0.74760210  0.86311250     0.05400
C17         C  0.76424333  0.83586003  0.49737448     0.03400
C18         C  0.76457794  0.80588253  0.48993241     0.03400
C19         C  0.73854132  0.79012183  0.49080466    -0.17100
C20         C  0.71206673  0.80345277  0.49754832     0.03400
C21         C  0.71174677  0.83350790  0.50406571     0.03400
C22         C  0.73781587  0.84915224  0.50467654    -0.17100
H23         H  0.73742843  0.87212121  0.51025059     0.05400
H24         H  0.73918628  0.76672978  0.48781916     0.05400
O25         O  0.61934311  0.45500670  0.94284108    -0.77400
C26         C  0.56583255  0.46800040  0.02279272     0.83700
O27         O  0.54910984  0.37516053  0.96283509    -0.78500
O28         O  0.48185109  0.45508988  0.97510211    -0.80000
O29         O  0.53649152  0.50576917  0.90566988    -0.79800
O30         O  0.60024478  0.47194371  0.90172692    -0.78400
Zn31       Zn  0.58542457  0.43877024  0.96572461     1.55700
O32         O  0.52031881  0.51314526  0.95111568    -0.79800
Cd33       Cd  0.55611415  0.46492651  0.90745659     1.59700
Cd34       Cd  0.52837462  0.40883294  0.94145773     1.59600
O35         O  0.54346555  0.43708616  0.87344494    -0.79800
O36         O  0.54886725  0.44658275  0.94653981    -1.90300
Cd37       Cd  0.52363683  0.47241874  0.97100004     1.59900
O38         O  0.52852204  0.39788982  0.89802748    -0.79700
O39         O  0.54154534  0.47630740  0.01262213    -0.78400
C40         C  0.57561857  0.37328455  0.96981200     0.84100
C41         C  0.62207795  0.46667285  0.91779875     0.83800
O42         O  0.58438613  0.45474421  0.00693838    -0.77400
C43         C  0.52516684  0.52213193  0.92520738     0.84600
O44         O  0.59226298  0.39540263  0.96956713    -0.77400
C45         C  0.53448700  0.41075573  0.87421104     0.84700
C46         C  0.47092491  0.43061110  0.96773034     0.85100
O47         O  0.48594840  0.41098398  0.95515035    -0.79900
O48         O  0.61998246  0.54769800  0.54926718    -0.77400
C49         C  0.56346041  0.53154283  0.47334827     0.83700
O50         O  0.55022499  0.62709785  0.54593792    -0.78500
O51         O  0.48179381  0.54764913  0.52210180    -0.80000
O52         O  0.54195231  0.49094683  0.58601227    -0.79800
O53         O  0.60295000  0.52900940  0.59054463    -0.78400
Zn54       Zn  0.58384539  0.56250348  0.52880484     1.55700
O55         O  0.51702844  0.48795313  0.54455253    -0.79800
Cd56       Cd  0.55884362  0.53251494  0.58654971     1.59700
Cd57       Cd  0.52763645  0.59075243  0.56123600     1.59600
O58         O  0.54493466  0.55422871  0.62355352    -0.79800
O59         O  0.54847821  0.55390478  0.55028768    -1.90300
Cd60       Cd  0.52234937  0.52890652  0.52594553     1.59900
O61         O  0.52465473  0.59467572  0.60624227    -0.79700
O62         O  0.53938063  0.52368987  0.48434653    -0.78400
C63         C  0.57437592  0.62867723  0.53254026     0.84100
C64         C  0.62401801  0.53591468  0.57403444     0.83800
O65         O  0.58208675  0.54577884  0.48807404    -0.77400
C66         C  0.52625172  0.47673182  0.56815017     0.84600
O67         O  0.58842914  0.60589721  0.52527167    -0.77400
C68         C  0.53237538  0.57858792  0.62747814     0.84700
C69         C  0.47085749  0.57157433  0.53093570     0.85100
O70         O  0.48550281  0.59025570  0.54536697    -0.79900
O71         O  0.42386116  0.87895496  0.54255972    -0.77400
C72         C  0.50544686  0.92391607  0.51439576     0.83700
O73         O  0.46925443  0.93709709  0.62143496    -0.78500
O74         O  0.47159253  0.01241083  0.54310360    -0.80000
O75         O  0.39010752  0.97131930  0.50724510    -0.79800
O76         O  0.38501652  0.90707918  0.53734738    -0.78400
Zn77       Zn  0.45478990  0.90828424  0.55423615     1.55700
O78         O  0.43342301  0.97992339  0.48769493    -0.79800
Cd79       Cd  0.39895275  0.94863632  0.54473251     1.59700
Cd80       Cd  0.44569134  0.96447644  0.59422129     1.59600
O81         O  0.37422012  0.96322747  0.57894780    -0.79800
O82         O  0.44056450  0.94796064  0.55420017    -1.90300
Cd83       Cd  0.46050169  0.97236416  0.52393238     1.59900
O84         O  0.40612267  0.96937643  0.61469445    -0.79700
O85         O  0.49760087  0.95026371  0.51029344    -0.78400
C86         C  0.47456471  0.91005228  0.61794270     0.84100
C87         C  0.39698234  0.88219439  0.53743018     0.83800
O88         O  0.49011614  0.90597316  0.52895839    -0.77400
C89         C  0.40583277  0.97970589  0.48607558     0.84600
O90         O  0.46886383  0.89698661  0.59414802    -0.77400
C91         C  0.38023890  0.96861861  0.60546752     0.84700
C92         C  0.47163841  0.02146928  0.56951042     0.85100
O93         O  0.46373326  0.00535356  0.59073907    -0.79900
C94         C  0.51589310  0.27299777  0.66808188     0.03400
C95         C  0.51744304  0.27790012  0.69841241     0.03400
C96         C  0.51584604  0.25402728  0.71730454    -0.17100
C97         C  0.51318910  0.22549417  0.70695904     0.03400
C98         C  0.51136439  0.22035623  0.67656494     0.03400
C99         C  0.51304553  0.24437191  0.65742917    -0.17100
H100        H  0.51334201  0.24085262  0.63408274     0.05400
H101        H  0.51675013  0.25769441  0.74067479     0.05400
O102        O  0.41487672  0.11540287  0.94747609    -0.77400
C103        C  0.50200920  0.08208345  0.97022443     0.83700
O104        O  0.45257465  0.04849714  0.87120607    -0.78500
O105        O  0.47587462  0.98719129  0.95458544    -0.80000
O106        O  0.39429285  0.02506397  0.99849946    -0.79800
O107        O  0.38009517  0.08709841  0.96559237    -0.78400
Zn108      Zn  0.44600555  0.08669307  0.93463703     1.55700
O109        O  0.44073253  0.02081026  0.01110658    -0.79800
Cd110      Cd  0.39472734  0.04531618  0.95844873     1.59700
Cd111      Cd  0.43467862  0.02458025  0.90503206     1.59600
O112        O  0.36524804  0.02570315  0.93026197    -0.79800
O113        O  0.43487814  0.04662778  0.94248635    -1.90300
Cd114      Cd  0.46238818  0.02794412  0.97103934     1.59900
O115        O  0.39316946  0.01407544  0.89238612    -0.79700
O116        O  0.49837081  0.05542034  0.97749734    -0.78400
C117        C  0.45742967  0.07575791  0.86959115     0.84100
C118        C  0.39025545  0.11215531  0.95964571     0.83800
O119        O  0.48319737  0.09589777  0.95549062    -0.77400
C120        C  0.41373532  0.01903935  0.01713080     0.84600
O121        O  0.45442234  0.09246016  0.89166857    -0.77400
C122        C  0.36850052  0.01535924  0.90463814     0.84700
C123        C  0.47043327  0.97393235  0.93065260     0.85100
O124        O  0.45577236  0.98566135  0.91035775    -0.79900
C125        C  0.71115799  0.16424091  0.00203352     0.03400
C126        C  0.71107290  0.19510030  0.00233783     0.03400
C127        C  0.73657477  0.21008568  0.00924523    -0.17100
C128        C  0.76237276  0.19542313  0.01537530     0.03400
C129        C  0.76299534  0.16461884  0.01420475     0.03400
C130        C  0.73724541  0.14950159  0.00779644    -0.17100
H131        H  0.73753464  0.12587235  0.00720081     0.05400
H132        H  0.73644755  0.23371515  0.00961510     0.05400
C133        C  0.16206913  0.99142006  0.72232601     0.03400
C134        C  0.19201008  0.98665641  0.72598436     0.03400
C135        C  0.20427485  0.98894406  0.75375628    -0.17100
C136        C  0.18759730  0.99553742  0.77836208     0.03400
C137        C  0.15783919  0.00123939  0.77472915     0.03400
C138        C  0.14529328  0.99923159  0.74684241    -0.17100
H139        H  0.12230316  0.00283776  0.74459793     0.05400
H140        H  0.22747946  0.98709482  0.75605201     0.05400
C141        C  0.02505711  0.77137955  0.19454067     0.03400
C142        C  0.01388236  0.77669336  0.16638796     0.03400
C143        C  0.00295705  0.75285967  0.15014498    -0.17100
C144        C  0.00376442  0.72416101  0.16141390     0.03400
C145        C  0.01494787  0.71955415  0.18972378     0.03400
C146        C  0.02590213  0.74308538  0.20544135    -0.17100
H147        H  0.03423796  0.73946449  0.22723376     0.05400
H148        H  0.99502143  0.75629495  0.12825523     0.05400
C149        C  0.26774066  0.70013648  0.51565524     0.03400
C150        C  0.26817508  0.66981144  0.52043988     0.03400
C151        C  0.24209016  0.65405512  0.51942049    -0.17100
C152        C  0.21560816  0.66816496  0.51393819     0.03400
C153        C  0.21542533  0.69864368  0.50900481     0.03400
C154        C  0.24156191  0.71397699  0.50928005    -0.17100
H155        H  0.24136031  0.73730071  0.50560266     0.05400
H156        H  0.24228191  0.63085170  0.52370166     0.05400
C157        C  0.69944833  0.47566181  0.22632838     0.03400
C158        C  0.66911848  0.47889223  0.22542392     0.03400
C159        C  0.65349314  0.48101746  0.25175387    -0.17100
C160        C  0.66801136  0.48119462  0.27878087     0.03400
C161        C  0.69854966  0.47944829  0.27940626     0.03400
C162        C  0.71379771  0.47604801  0.25316527    -0.17100
H163        H  0.73713212  0.47464568  0.25339444     0.05400
H164        H  0.63020944  0.48319894  0.25118903     0.05400
O165        O  0.87075942  0.53656131  0.43183999    -0.77400
C166        C  0.91917906  0.54047090  0.51660785     0.83700
O167        O  0.91951719  0.63138255  0.44123855    -0.78500
O168        O  0.00247382  0.56871948  0.47208623    -0.80000
O169        O  0.96042039  0.49962929  0.40835272    -0.79800
O170        O  0.89746615  0.52409511  0.39334578    -0.78400
Zn171      Zn  0.89906368  0.56069496  0.45621953     1.55700
O172        O  0.97769119  0.50040253  0.45370367    -0.79800
Cd173      Cd  0.93820022  0.53764089  0.40304901     1.59700
Cd174      Cd  0.95074584  0.60098849  0.42910846     1.59600
O175        O  0.95285381  0.56038172  0.36703416    -0.79800
O176        O  0.93801912  0.56062253  0.43970514    -1.90300
Cd177      Cd  0.96575360  0.54240604  0.46803172     1.59900
O178        O  0.95822789  0.60541607  0.38429340    -0.79700
O179        O  0.94568442  0.53899320  0.50887626    -0.78400
C180        C  0.89391309  0.62726914  0.45079801     0.84100
C181        C  0.87357650  0.52432391  0.40697025     0.83800
O182        O  0.89930352  0.54692270  0.49848159    -0.77400
C183        C  0.97347522  0.48739822  0.42939932     0.84600
O184        O  0.88426580  0.60191387  0.45649614    -0.77400
C185        C  0.95872185  0.58718893  0.36321832     0.84700
C186        C  0.00772813  0.59477359  0.46378753     0.85100
O187        O  0.98970300  0.60964328  0.44905796    -0.79900
O188        O  0.05267005  0.87246407  0.44552419    -0.77400
C189        C  0.97049760  0.91792892  0.45769046     0.83700
O190        O  0.04154001  0.94696782  0.36943447    -0.78500
O191        O  0.00895114  0.00724084  0.45113382    -0.80000
O192        O  0.07884818  0.95545085  0.50617530    -0.79800
O193        O  0.08834057  0.89198930  0.47131091    -0.78400
Zn194      Zn  0.02988881  0.90677940  0.43063727     1.55700
O195        O  0.03314624  0.97072969  0.51015928    -0.79800
Cd196      Cd  0.08148300  0.93631596  0.46531614     1.59700
Cd197      Cd  0.05446996  0.96794585  0.40751618     1.59600
O198        O  0.11732025  0.95081675  0.44204664    -0.79800
O199        O  0.04527199  0.94398323  0.44295453    -1.90300
Cd200      Cd  0.01642454  0.96542997  0.46809037     1.59900
O201        O  0.09886028  0.97305979  0.40310404    -0.79700
O202        O  0.97710561  0.94233178  0.46944398    -0.78400
C203        C  0.03446778  0.92039672  0.36580095     0.84100
C204        C  0.07522394  0.86982923  0.46104366     0.83800
O205        O  0.98874212  0.90311741  0.44312791    -0.77400
C206        C  0.05826777  0.96679234  0.52094667     0.84600
O207        O  0.03043014  0.90340487  0.38729283    -0.77400
C208        C  0.12042250  0.96428426  0.41795258     0.84700
C209        C  0.01784384  0.02056329  0.42836217     0.85100
O210        O  0.03491995  0.00851881  0.41004554    -0.79900
O211        O  0.87010098  0.45807922  0.06217770    -0.77400
C212        C  0.91570353  0.46839796  0.97742859     0.83700
O213        O  0.92862325  0.37165115  0.04655930    -0.78500
O214        O  0.00186133  0.43988198  0.01320581    -0.80000
O215        O  0.95863636  0.50601123  0.08450929    -0.79800
O216        O  0.89640297  0.47576424  0.09886423    -0.78400
Zn217      Zn  0.89994326  0.43859001  0.03559483     1.55700
O218        O  0.97908314  0.50569157  0.04049083    -0.79800
Cd219      Cd  0.93830544  0.46644813  0.08828613     1.59700
Cd220      Cd  0.95533294  0.40476233  0.06045224     1.59600
O221        O  0.95635079  0.44399426  0.12301112    -0.79800
O222        O  0.93917168  0.44392622  0.05112791    -1.90300
Cd223      Cd  0.96528065  0.46544974  0.02307951     1.59900
O224        O  0.96219899  0.39924733  0.10499992    -0.79700
O225        O  0.94168133  0.47400488  0.98506568    -0.78400
C226        C  0.90279471  0.37180150  0.03727363     0.84100
C227        C  0.87221441  0.47133396  0.08659520     0.83800
O228        O  0.89799514  0.45533505  0.99440141    -0.77400
C229        C  0.97368414  0.51827594  0.06478669     0.84600
O230        O  0.88903037  0.39549082  0.03306769    -0.77400
C231        C  0.96291500  0.41726225  0.12620699     0.84700
C232        C  0.00915085  0.41425734  0.02131170     0.85100
O233        O  0.99373916  0.39919150  0.03866768    -0.79900
C234        C  0.29280753  0.99526340  0.27385352     0.03400
C235        C  0.32321884  0.99871533  0.27317755     0.03400
C236        C  0.33746617  0.99906679  0.24591197    -0.17100
C237        C  0.32218271  0.99645071  0.21931006     0.03400
C238        C  0.29170352  0.99335721  0.22037937     0.03400
C239        C  0.27771382  0.99259611  0.24757793    -0.17100
H240        H  0.25432720  0.99175494  0.24841968     0.05400
H241        H  0.36076160  0.00072478  0.24575893     0.05400
O242        O  0.06318699  0.12759527  0.04121987    -0.77400
C243        C  0.97667116  0.08954967  0.03085807     0.83700
O244        O  0.04098471  0.06322295  0.12527301    -0.78500
O245        O  0.00714892  0.99679835  0.04808902    -0.80000
O246        O  0.08267512  0.03614731  0.99412427    -0.79800
O247        O  0.09738374  0.09970696  0.02151078    -0.78400
Zn248      Zn  0.03574784  0.09802149  0.05989097     1.55700
O249        O  0.03575386  0.02663522  0.98785050    -0.79800
Cd250      Cd  0.08571734  0.05807261  0.03283242     1.59700
Cd251      Cd  0.05303663  0.03689348  0.09071188     1.59600
O252        O  0.11892893  0.04092728  0.05782905    -0.79800
O253        O  0.04760706  0.05786731  0.05303135    -1.90300
Cd254      Cd  0.01790863  0.03670036  0.02873281     1.59900
O255        O  0.09598864  0.02643241  0.09794215    -0.79700
O256        O  0.98067280  0.06277981  0.02408191    -0.78400
C257        C  0.03473314  0.09022805  0.12616914     0.84100
C258        C  0.08639370  0.12460567  0.02642885     0.83800
O259        O  0.99614841  0.10460131  0.04337258    -0.77400
C260        C  0.06183316  0.02681748  0.97861696     0.84600
O261        O  0.03279133  0.10565781  0.10316362    -0.77400
C262        C  0.11910368  0.02951374  0.08309725     0.84700
C263        C  0.01428751  0.98499114  0.07220319     0.85100
O264        O  0.03050463  0.99797168  0.09056450    -0.79900
C265        C  0.98743366  0.27900598  0.33672055     0.03400
C266        C  0.99105570  0.28325663  0.30634904     0.03400
C267        C  0.99653989  0.25905752  0.28854270    -0.17100
C268        C  0.99791074  0.23090527  0.29995586     0.03400
C269        C  0.99498640  0.22634857  0.33023761     0.03400
C270        C  0.98951014  0.25061299  0.34842510    -0.17100
H271        H  0.98744845  0.24767331  0.37173762     0.05400
H272        H  0.99758808  0.26180853  0.26509377     0.05400
C273        C  0.26657359  0.32994664  0.97179749     0.03400
C274        C  0.26387413  0.29927969  0.97170370     0.03400
C275        C  0.23684192  0.28668582  0.97744783    -0.17100
C276        C  0.21226537  0.30373238  0.98318508     0.03400
C277        C  0.21489273  0.33452591  0.98323965     0.03400
C278        C  0.24217490  0.34721065  0.97808897    -0.17100
H279        H  0.24422105  0.37072855  0.97800919     0.05400
H280        H  0.23502094  0.26317692  0.97781366     0.05400
C281        C  0.11313839  0.20209573  0.00873050     0.19800
C282        C  0.12088687  0.22554865  0.02673082    -0.18300
C283        C  0.14050254  0.24665532  0.01692302    -0.10600
C284        C  0.15230898  0.24491945  0.98862658     0.22100
C285        C  0.14308799  0.22237858  0.97010822    -0.19900
C286        C  0.12368103  0.20124720  0.97997371    -0.10700
C287        C  0.17639767  0.26390251  0.97850977    -0.14900
C288        C  0.18498543  0.28867479  0.99175937    -0.28800
C289        C  0.09550508  0.17785982  0.02078042    -0.03000
C290        C  0.10146685  0.15001234  0.01389524    -0.39600
H291        H  0.11291947  0.22669901  0.04892295     0.13200
H292        H  0.14727223  0.26337156  0.03209323     0.12800
H293        H  0.15163837  0.22055294  0.94820043     0.12300
H294        H  0.11744288  0.18388701  0.96528233     0.12500
H295        H  0.18838952  0.25650767  0.95949167     0.15300
H296        H  0.17224180  0.29807946  0.00926735     0.14000
H297        H  0.07929814  0.18269886  0.03726640     0.11700
H298        H  0.11926527  0.14533378  0.99912533     0.13700
C299        C  0.01657731  0.14580992  0.18575758     0.19800
C300        C  0.99154223  0.16058644  0.19457221    -0.18300
C301        C  0.99193320  0.17845713  0.21926884    -0.10600
C302        C  0.01766800  0.18248889  0.23493797     0.22100
C303        C  0.04269927  0.16775571  0.22612993    -0.19900
C304        C  0.04208534  0.14917747  0.20197505    -0.10700
C305        C  0.01925574  0.20416732  0.25865019    -0.14900
C306        C  0.99866024  0.20627055  0.27911761    -0.28800
C307        C  0.01662081  0.12936943  0.15804570    -0.03000
C308        C  0.03097074  0.10417281  0.15485049    -0.39600
H309        H  0.97180351  0.15858302  0.18209656     0.13200
H310        H  0.97251452  0.19015810  0.22534567     0.12800
H311        H  0.06280635  0.17094506  0.23774366     0.12300
H312        H  0.06186796  0.13853154  0.19517374     0.12500
H313        H  0.03755132  0.21901999  0.25908483     0.15300
H314        H  0.98156763  0.19007119  0.28025796     0.14000
H315        H  0.00481307  0.13843285  0.13974419     0.11700
H316        H  0.04083368  0.09388166  0.17366183     0.13700
C317        C  0.22528074  0.98426937  0.16973840     0.19800
C318        C  0.19979611  0.96785388  0.17246634    -0.18300
C319        C  0.17550881  0.97429654  0.15569896    -0.10600
C320        C  0.17607582  0.99707316  0.13541851     0.22100
C321        C  0.20191582  0.01285403  0.13166899    -0.19900
C322        C  0.22626620  0.00653619  0.14864937    -0.10700
C323        C  0.14863379  0.00516281  0.12067968    -0.14900
C324        C  0.14708941  0.02026447  0.09560402    -0.28800
C325        C  0.24865452  0.97908222  0.19145800    -0.03000
C326        C  0.27342643  0.99447705  0.19358867    -0.39600
H327        H  0.19824811  0.95064025  0.18847467     0.13200
H328        H  0.15590235  0.96181481  0.15911678     0.12800
H329        H  0.20307061  0.03095310  0.11667822     0.12300
H330        H  0.24526480  0.01990476  0.14574832     0.12500
H331        H  0.12866000  0.99819479  0.13108161     0.15300
H332        H  0.16665678  0.02609280  0.08389054     0.14000
H333        H  0.24417437  0.96297273  0.20817769     0.11700
H334        H  0.27966400  0.00966703  0.17669831     0.13700
C335        C  0.13777359  0.36802406  0.98104210     0.19800
C336        C  0.11081264  0.35608871  0.97375064    -0.18300
C337        C  0.08528627  0.37135180  0.97940184    -0.10600
C338        C  0.08608060  0.39911627  0.99240903     0.22100
C339        C  0.11303533  0.41168857  0.99854753    -0.19900
C340        C  0.13866643  0.39627125  0.99311163    -0.10700
C341        C  0.05903136  0.41483236  0.00038377    -0.14900
C342        C  0.03584161  0.40032278  0.01045729    -0.28800
C343        C  0.16409334  0.35015484  0.97541251    -0.03000
C344        C  0.18982136  0.35423130  0.98852431    -0.39600
H345        H  0.10943826  0.33459973  0.96405150     0.13200
H346        H  0.06492382  0.36135808  0.97356444     0.12800
H347        H  0.11422599  0.43318992  0.00823452     0.12300
H348        H  0.15898643  0.40667181  0.99825479     0.12500
H349        H  0.05898780  0.43849548  0.00037495     0.15300
H350        H  0.03711423  0.37683842  0.01299668     0.14000
H351        H  0.16180949  0.33189981  0.96047760     0.11700
H352        H  0.19318794  0.37272623  0.00285957     0.13700
C353        C  0.98935940  0.34116297  0.24624751     0.19800
C354        C  0.00923650  0.35714865  0.22949457    -0.18300
C355        C  0.00034759  0.37195013  0.20438968    -0.10600
C356        C  0.97148350  0.37031461  0.19512171     0.22100
C357        C  0.95145519  0.35501465  0.21226336    -0.19900
C358        C  0.96017531  0.34089594  0.23779009    -0.10700
C359        C  0.96253494  0.38158525  0.16620828    -0.14900
C360        C  0.97184469  0.40709676  0.15535345    -0.28800
C361        C  0.00024621  0.32068555  0.26872782    -0.03000
C362        C  0.98446946  0.31141988  0.29166585    -0.39600
H363        H  0.03192905  0.35721283  0.23521669     0.13200
H364        H  0.01634867  0.38314622  0.19130828     0.12800
H365        H  0.92914772  0.35325859  0.20539318     0.12300
H366        H  0.94444144  0.32812776  0.24969893     0.12500
H367        H  0.94701342  0.36883803  0.15380143     0.15300
H368        H  0.98501830  0.42144888  0.16870543     0.14000
H369        H  0.02102800  0.31047140  0.26447659     0.11700
H370        H  0.96468958  0.32268313  0.29766165     0.13700
C371        C  0.99381595  0.15399104  0.37483078     0.19800
C372        C  0.99385925  0.14573624  0.40432878    -0.18300
C373        C  0.99970618  0.11679111  0.41241376    -0.10600
C374        C  0.00536691  0.09544835  0.39101331     0.22100
C375        C  0.00438924  0.10359938  0.36158719    -0.19900
C376        C  0.99838473  0.13228473  0.35355404    -0.10700
C377        C  0.01396483  0.06492710  0.39799061    -0.14900
C378        C  0.00817341  0.05101870  0.42322771    -0.28800
C379        C  0.98886249  0.18512356  0.36654424    -0.03000
C380        C  0.00011736  0.19638746  0.34185899    -0.39600
H381        H  0.99010827  0.16187642  0.42117883     0.13200
H382        H  0.00061710  0.11148241  0.43534690     0.12800
H383        H  0.00835966  0.08763133  0.34460830     0.12300
H384        H  0.99722950  0.13725313  0.33055225     0.12500
H385        H  0.02514775  0.05298662  0.38086278     0.15300
H386        H  0.99577109  0.06178549  0.44021373     0.14000
H387        H  0.97600634  0.19874049  0.38094877     0.11700
H388        H  0.01391060  0.18254267  0.32862579     0.13700
C389        C  0.18393308  0.98311005  0.36691111     0.19800
C390        C  0.19443731  0.00812288  0.35289269    -0.18300
C391        C  0.21906335  0.00670166  0.33510214    -0.10600
C392        C  0.23314897  0.97996399  0.33038016     0.22100
C393        C  0.22282554  0.95502861  0.34463846    -0.19900
C394        C  0.19868918  0.95659414  0.36301957    -0.10700
C395        C  0.25561124  0.97673382  0.30747715    -0.14900
C396        C  0.27527071  0.99736765  0.30098551    -0.28800
C397        C  0.15580036  0.98424944  0.38255108    -0.03000
C398        C  0.14998812  0.96784654  0.40612298    -0.39600
H399        H  0.18313238  0.02868006  0.35516725     0.13200
H400        H  0.22602222  0.02610928  0.32373952     0.12800
H401        H  0.23298761  0.93407636  0.34086028     0.12300
H402        H  0.19067080  0.93677224  0.37283812     0.12500
H403        H  0.25524404  0.95684644  0.29453823     0.15300
H404        H  0.27769156  0.01643387  0.31484103     0.14000
H405        H  0.13911119  0.99835172  0.37376449     0.11700
H406        H  0.16715632  0.95514154  0.41601951     0.13700
C407        C  0.97641673  0.40922138  0.39848347     0.19800
C408        C  0.95461953  0.39090231  0.38767672    -0.18300
C409        C  0.96130293  0.36360069  0.37597363    -0.10600
C410        C  0.99012142  0.35416449  0.37438575     0.22100
C411        C  0.01193597  0.37219195  0.38573590    -0.19900
C412        C  0.00516150  0.39938824  0.39799973    -0.10700
C413        C  0.99800945  0.32734728  0.35800946    -0.14900
C414        C  0.98077662  0.30375884  0.35646101    -0.28800
C415        C  0.96856419  0.43957470  0.40636748    -0.03000
C416        C  0.98303389  0.45687800  0.42515085    -0.39600
H417        H  0.93235100  0.39815025  0.38743587     0.13200
H418        H  0.94406121  0.35065176  0.36674261     0.12800
H419        H  0.03435215  0.36552155  0.38441074     0.12300
H420        H  0.02250831  0.41324159  0.40556406     0.12500
H421        H  0.01843415  0.32721953  0.34623245     0.15300
H422        H  0.96159986  0.30229731  0.37006353     0.14000
H423        H  0.94923653  0.44814084  0.39603503     0.11700
H424        H  0.00096754  0.44847948  0.43779954     0.13700
C425        C  0.79835779  0.50043031  0.38137718     0.19800
C426        C  0.77368147  0.51702852  0.37558932    -0.18300
C427        C  0.75403249  0.50806704  0.35425309    -0.10600
C428        C  0.75846431  0.48190059  0.33864658     0.22100
C429        C  0.78225332  0.46446392  0.34588937    -0.19900
C430        C  0.80191764  0.47350766  0.36710017    -0.10700
C431        C  0.74052764  0.47331369  0.31310382    -0.14900
C432        C  0.71465813  0.48513560  0.30699553    -0.28800
C433        C  0.82143072  0.51280535  0.40009621    -0.03000
C434        C  0.84927460  0.50958865  0.39253844    -0.39600
H435        H  0.77049894  0.53782490  0.38634418     0.13200
H436        H  0.73636778  0.52255815  0.34922900     0.12800
H437        H  0.78614894  0.44415685  0.33445189     0.12300
H438        H  0.82037437  0.45982385  0.37169505     0.12500
H439        H  0.74924788  0.45682578  0.29851189     0.23300
H440        H  0.70476852  0.49996762  0.32247441     0.14000
H441        H  0.81557894  0.52731106  0.41789871     0.11700
H442        H  0.85466123  0.49710343  0.37311315     0.13700
C443        C  0.79618628  0.47742215  0.11900242     0.19800
C444        C  0.77635014  0.45528323  0.12556262    -0.18300
C445        C  0.75736804  0.45823216  0.14918476    -0.10600
C446        C  0.75770788  0.48367975  0.16641597     0.22100
C447        C  0.77629731  0.50649310  0.15863751    -0.19900
C448        C  0.79513323  0.50358404  0.13501569    -0.10700
C449        C  0.74053431  0.48660765  0.19362159    -0.14900
C450        C  0.71634760  0.47139943  0.19907141    -0.28800
C451        C  0.81967500  0.47153286  0.09768915    -0.03000
C452        C  0.84648188  0.48168616  0.10235361    -0.39600
H453        H  0.77670549  0.43496701  0.11347365     0.13200
H454        H  0.74362776  0.43999679  0.15465928     0.12800
H455        H  0.77672005  0.52645401  0.17131890     0.12300
H456        H  0.80945394  0.52149077  0.12989444     0.12500
H457        H  0.74754753  0.50276836  0.20947468     0.15300
H458        H  0.70741701  0.45709943  0.18252158     0.14000
H459        H  0.81605669  0.45547424  0.08062319     0.11700
H460        H  0.85057179  0.49566747  0.12103631     0.13700
C461        C  0.08625172  0.60987919  0.48705235     0.19800
C462        C  0.10271599  0.60685810  0.51249845    -0.18300
C463        C  0.12960458  0.62075659  0.51503095    -0.10600
C464        C  0.14070327  0.63745878  0.49178819     0.22100
C465        C  0.12443480  0.63974889  0.46616646    -0.19900
C466        C  0.09766685  0.62605879  0.46373315    -0.10700
C467        C  0.16835268  0.65391460  0.49330717    -0.14900
C468        C  0.18870609  0.65043017  0.51388320    -0.28800
C469        C  0.05738496  0.59586984  0.48477302    -0.03000
C470        C  0.03582902  0.60861878  0.46991852    -0.39600
H471        H  0.09444146  0.59434280  0.53067251     0.13200
H472        H  0.14115882  0.61877489  0.53535282     0.12800
H473        H  0.13243809  0.65230346  0.44788146     0.12300
H474        H  0.08600877  0.62802496  0.44340620     0.12500
H475        H  0.17249232  0.66946306  0.47596254     0.15300
H476        H  0.18679526  0.63317577  0.52985697     0.14000
H477        H  0.05380705  0.57512106  0.49551632     0.11700
H478        H  0.03914828  0.63020415  0.46084127     0.13700
C479        C  0.12439989  0.80676219  0.48515389     0.19800
C480        C  0.13597992  0.79689536  0.51156279    -0.18300
C481        C  0.15401517  0.77243764  0.51221950    -0.10600
C482        C  0.16140622  0.75786683  0.48625832     0.22100
C483        C  0.14952894  0.76746411  0.45989879    -0.19900
C484        C  0.13088507  0.79144514  0.45933792    -0.10700
C485        C  0.18457111  0.73561460  0.48575126    -0.14900
C486        C  0.18838983  0.71594998  0.50707105    -0.28800
C487        C  0.10859214  0.83488594  0.48444094    -0.03000
C488        C  0.08716989  0.84031750  0.46550518    -0.39600
H489        H  0.13164246  0.80861645  0.53165334     0.13200
H490        H  0.16349733  0.76600323  0.53273824     0.12800
H491        H  0.15535945  0.75687571  0.43957516     0.12300
H492        H  0.12293855  0.79894172  0.43853461     0.12500
H493        H  0.19984304  0.73621542  0.46769615     0.15300
H494        H  0.17218774  0.71340254  0.52407334     0.14000
H495        H  0.11538332  0.85187968  0.49949406     0.11700
H496        H  0.07902546  0.82284542  0.45176629     0.13700
C497        C  0.00704219  0.90971908  0.11021277     0.19800
C498        C  0.01450495  0.90020122  0.13824169    -0.18300
C499        C  0.01148068  0.87104182  0.14619821    -0.10600
C500        C  0.00125239  0.85022975  0.12614940     0.22100
C501        C  0.99284751  0.85976569  0.09833489    -0.19900
C502        C  0.99586308  0.88917982  0.09030451    -0.10700
C503        C  0.99870342  0.81879003  0.13429541    -0.14900
C504        C  0.01659767  0.80662611  0.15395977    -0.28800
C505        C  0.01297429  0.94083476  0.10287430    -0.03000
C506        C  0.00438933  0.95483304  0.07854575    -0.39600
H507        H  0.02291335  0.91543976  0.15416535     0.13200
H508        H  0.01697332  0.86499682  0.16829567     0.12800
H509        H  0.98453975  0.84430373  0.08257875     0.12300
H510        H  0.99001705  0.89543594  0.06841074     0.12500
H511        H  0.98177241  0.80583553  0.12432503     0.15300
H512        H  0.03405256  0.81983643  0.16254734     0.14000
H513        H  0.02588507  0.95286636  0.11855288     0.11700
H514        H  0.99105851  0.94393500  0.06251520     0.13700
C515        C  0.99946861  0.64886441  0.12331516     0.19800
C516        C  0.01992505  0.62911432  0.11210315    -0.18300
C517        C  0.01120718  0.60250628  0.09982970    -0.10600
C518        C  0.98179069  0.59495515  0.09902089     0.22100
C519        C  0.96138327  0.61486319  0.10988729    -0.19900
C520        C  0.97002436  0.64157748  0.12171525    -0.10700
C521        C  0.97171418  0.56545832  0.09024294    -0.14900
C522        C  0.98494258  0.54800835  0.07059723    -0.28800
C523        C  0.00959152  0.67530251  0.13914620    -0.03000
C524        C  0.99351904  0.69951310  0.14306992    -0.39600
H525        H  0.04275905  0.63400509  0.11345159     0.13200
H526        H  0.02753881  0.58737924  0.09231197     0.12800
H527        H  0.93859869  0.60938390  0.10989106     0.12300
H528        H  0.95367894  0.65577675  0.13083254     0.12500
H529        H  0.95180188  0.55788095  0.10035510     0.15300
H530        H  0.00353686  0.55574242  0.05838757     0.14000
H531        H  0.03125118  0.67474619  0.14821364     0.11700
H532        H  0.97307152  0.70194217  0.13183947     0.13700
C533        C  0.98196023  0.63450319  0.29735244     0.19800
C534        C  0.00366645  0.65537413  0.29312768    -0.18300
C535        C  0.00749559  0.66865466  0.26601447    -0.10600
C536        C  0.98938440  0.66166730  0.24239843     0.22100
C537        C  0.96782719  0.64051623  0.24644321    -0.19900
C538        C  0.96432258  0.62678342  0.27356070    -0.10700
C539        C  0.99022910  0.67931232  0.21517509    -0.14900
C540        C  0.01489095  0.69127656  0.20527135    -0.28800
C541        C  0.97668189  0.62342270  0.32739821    -0.03000
C542        C  0.96537111  0.59706198  0.33318386    -0.39600
H543        H  0.01728998  0.66199213  0.31112664     0.13200
H544        H  0.02364085  0.68560455  0.26413281     0.12800
H545        H  0.95323225  0.63517678  0.22883273     0.12300
H546        H  0.94691170  0.61127713  0.27619790     0.12500
H547        H  0.96978076  0.68579136  0.20560553     0.15300
H548        H  0.03519543  0.68478788  0.21514275     0.14000
H549        H  0.98284228  0.63742777  0.34549121     0.11700
H550        H  0.96094739  0.58205483  0.31541111     0.13700
C551        C  0.03113985  0.86557092  0.30234018     0.19800
C552        C  0.04402121  0.83817919  0.29886621    -0.18300
C553        C  0.04087382  0.82258675  0.27298935    -0.10600
C554        C  0.02460820  0.83405316  0.24982772     0.22100
C555        C  0.01177851  0.86157987  0.25321571    -0.19900
C556        C  0.01515564  0.87736259  0.27918344    -0.10700
C557        C  0.01823562  0.81634496  0.22346036    -0.14900
C558        C  0.03546616  0.79451246  0.21444344    -0.28800
C559        C  0.03300671  0.87971136  0.33130015    -0.03000
C560        C  0.03142560  0.90861270  0.33598508    -0.39600
H561        H  0.05609821  0.82846486  0.31655620     0.13200
H562        H  0.05011484  0.80099725  0.27190554     0.12800
H563        H  0.99866561  0.87061741  0.23592980     0.12300
H564        H  0.00432901  0.89813607  0.28147962     0.12500
H565        H  0.99778416  0.81996714  0.21247210     0.15300
H566        H  0.05592040  0.79061671  0.22523939     0.14000
H567        H  0.03714924  0.86544120  0.34970551     0.11700
H568        H  0.02950302  0.92365366  0.31786356     0.13700
C569        C  0.10152008  0.01608788  0.90567121     0.19800
C570        C  0.11840598  0.03560830  0.88948082    -0.18300
C571        C  0.12849129  0.02806407  0.86181747    -0.10600
C572        C  0.12234658  0.00048893  0.85004908     0.22100
C573        C  0.10568914  0.98077137  0.86630830    -0.19900
C574        C  0.09497716  0.98861593  0.89381442    -0.10700
C575        C  0.13562374  0.99115149  0.82223035    -0.14900
C576        C  0.13968363  0.00953215  0.79987448    -0.28800
C577        C  0.09329318  0.02434469  0.93570910    -0.03000
C578        C  0.06841803  0.01648904  0.94879375    -0.39600
H579        H  0.12409521  0.05672871  0.89844605     0.13200
H580        H  0.14206672  0.04332918  0.85018293     0.12800
H581        H  0.10121888  0.95918140  0.85780533     0.12300
H582        H  0.08262516  0.97288411  0.90619387     0.12500
H583        H  0.14322362  0.96879506  0.82039673     0.15300
H584        H  0.13043396  0.03126811  0.80033616     0.14000
H585        H  0.10794834  0.03901928  0.94703383     0.11700
H586        H  0.05240542  0.00372118  0.93710516     0.13700
C587        C  0.11562119  0.99383123  0.65192808     0.19800
C588        C  0.08613173  0.99338716  0.64484054    -0.18300
C589        C  0.07715360  0.98712253  0.61626075    -0.10600
C590        C  0.09768300  0.98162039  0.59413917     0.22100
C591        C  0.12710772  0.98312603  0.60119924    -0.19900
C592        C  0.13599576  0.98934909  0.62955260    -0.10700
C593        C  0.08999618  0.97324574  0.56370725    -0.14900
C594        C  0.06360329  0.97566845  0.55160477    -0.28800
C595        C  0.12504047  0.99893996  0.68258138    -0.03000
C596        C  0.14899128  0.98607969  0.69309916    -0.39600
H597        H  0.07000978  0.99708653  0.66161599     0.13200
H598        H  0.05426300  0.98597617  0.61190528     0.12800
H599        H  0.14344948  0.97934092  0.58463929     0.12300
H600        H  0.15893047  0.99071004  0.63384435     0.12500
H601        H  0.10754468  0.96495184  0.55022913     0.15300
H602        H  0.04565988  0.98462896  0.56395548     0.14000
H603        H  0.11222787  0.01326570  0.69631122     0.11700
H604        H  0.16037825  0.97085653  0.67903867     0.13700
C605        C  0.84280646  0.13721590  0.01104933     0.19800
C606        C  0.86878914  0.14984331  0.00142349    -0.18300
C607        C  0.89505354  0.13497999  0.00391646    -0.10600
C608        C  0.89607759  0.10691953  0.01615613     0.22100
C609        C  0.87008568  0.09393831  0.02518274    -0.19900
C610        C  0.84375907  0.10888840  0.02283713    -0.10700
C611        C  0.92385102  0.09076281  0.01969124    -0.14900
C612        C  0.94907595  0.10453731  0.02452068    -0.28800
C613        C  0.81549895  0.15424406  0.00750143    -0.03000
C614        C  0.78972334  0.14725232  0.01943718    -0.39600
H615        H  0.86880728  0.17141729  0.99190567     0.13200
H616        H  0.91444329  0.14541345  0.99585738     0.12800
H617        H  0.87019253  0.07225181  0.03442430     0.12300
H618        H  0.82437962  0.09788910  0.02999943     0.12500
H619        H  0.92319327  0.06711695  0.02051073     0.15300
H620        H  0.94931051  0.12812699  0.02621589     0.14000
H621        H  0.81673322  0.17361498  0.99400384     0.11700
H622        H  0.78729984  0.12739167  0.03192108     0.13700
C623        C  0.81714095  0.25796251  0.01701157     0.19800
C624        C  0.83798651  0.26904149  0.99777132    -0.18300
C625        C  0.85340649  0.29433130  0.00472193    -0.10600
C626        C  0.84757069  0.30949352  0.03075546     0.22100
C627        C  0.82697885  0.29819920  0.05018712    -0.19900
C628        C  0.81215165  0.27241676  0.04360793    -0.10700
C629        C  0.86122681  0.33809480  0.03694898    -0.14900
C630        C  0.88907546  0.34353128  0.03080158    -0.28800
C631        C  0.79768423  0.23439126  0.00702745    -0.03000
C632        C  0.78736853  0.21340461  0.02460072    -0.39600
H633        H  0.84178312  0.25850304  0.97691695     0.13200
H634        H  0.86880103  0.30279673  0.98911518     0.12800
H635        H  0.82200424  0.30964943  0.07029121     0.12300
H636        H  0.79565600  0.26475255  0.05847443     0.12500
H637        H  0.84842799  0.35464718  0.04803984     0.15300
H638        H  0.90275095  0.32610436  0.02252496     0.14000
H639        H  0.79028726  0.23524665  0.98455744     0.11700
H640        H  0.79576155  0.21079357  0.04652007     0.13700
C641        C  0.37895901  0.00559932  0.15619849     0.19800
C642        C  0.40280204  0.02403107  0.15155312    -0.18300
C643        C  0.41617340  0.02572333  0.12414258    -0.10600
C644        C  0.40597647  0.00914619  0.10057629     0.22100
C645        C  0.38308633  0.98953182  0.10552861    -0.19900
C646        C  0.36980836  0.98770776  0.13296562    -0.10700
C647        C  0.41901436  0.01341144  0.07103347    -0.14900
C648        C  0.40350056  0.01023593  0.04644522    -0.28800
C649        C  0.36446448  0.00581570  0.18546119    -0.03000
C650        C  0.33759588  0.99531106  0.19045098    -0.39600
H651        H  0.41074666  0.03770656  0.16905605     0.13200
H652        H  0.43400257  0.04073791  0.12111603     0.12800
H653        H  0.37539822  0.97545882  0.08826321     0.12300
H654        H  0.35251449  0.97211889  0.13569592     0.12500
H655        H  0.44074281  0.02227807  0.06959198     0.15300
H656        H  0.38094532  0.00392160  0.04803139     0.14000
H657        H  0.37583464  0.01672218  0.20298055     0.11700
H658        H  0.32570713  0.98617494  0.17234286     0.13700
C659        C  0.24557923  0.98667427  0.83828853     0.19800
C660        C  0.27096706  0.96994958  0.83827340    -0.18300
C661        C  0.29341187  0.97612036  0.85756894    -0.10600
C662        C  0.29106962  0.99933439  0.87747913     0.22100
C663        C  0.26495580  0.01486600  0.87891761    -0.19900
C664        C  0.24242496  0.00876544  0.85942324    -0.10700
C665        C  0.31575310  0.00822177  0.89629494    -0.14900
C666        C  0.34344047  0.00458293  0.88788651    -0.28800
C667        C  0.22434204  0.98116451  0.81457741    -0.03000
C668        C  0.20255380  0.99909467  0.80695490    -0.39600
H669        H  0.27390127  0.95251409  0.82257691     0.13200
H670        H  0.31265030  0.96280904  0.85659231     0.12800
H671        H  0.26237395  0.03247895  0.89446644     0.12300
H672        H  0.22299712  0.02172485  0.86074429     0.12500
H673        H  0.31108432  0.01995083  0.91637014     0.15300
H674        H  0.34819357  0.99473731  0.86688687     0.14000
H675        H  0.22856190  0.96238188  0.80070930     0.11700
H676        H  0.19666424  0.01754423  0.82049346     0.13700
C677        C  0.35757983  0.18922556  0.96432899     0.19800
C678        C  0.35213914  0.21055851  0.94322116    -0.18300
C679        C  0.33196145  0.23268388  0.94853836    -0.10600
C680        C  0.31720334  0.23415806  0.97541945     0.22100
C681        C  0.32357011  0.21341707  0.99688194    -0.19900
C682        C  0.34357926  0.19126834  0.99149741    -0.10700
C683        C  0.29368482  0.25547094  0.98136400    -0.14900
C684        C  0.28912798  0.27992002  0.96586939    -0.28800
C685        C  0.37728750  0.16463856  0.95730609    -0.03000
C686        C  0.37245200  0.13763815  0.96753279    -0.39600
H687        H  0.36272440  0.20946418  0.92215900     0.13200
H688        H  0.32738538  0.24780333  0.93115508     0.12800
H689        H  0.31268614  0.21408342  0.01781056     0.12300
H690        H  0.34792513  0.17567926  0.00857385     0.12500
H691        H  0.27942792  0.25083387  0.99965423     0.15300
H692        H  0.30432281  0.28618202  0.94903007     0.14000
H693        H  0.39468406  0.16827889  0.94177791     0.11700
H694        H  0.35365140  0.13354804  0.98114010     0.13700
C695        C  0.63203311  0.13480646  0.00163332     0.19800
C696        C  0.60497751  0.14792684  0.00610062    -0.18300
C697        C  0.57937638  0.13226774  0.00179552    -0.10600
C698        C  0.58013124  0.10287647  0.99296132     0.22100
C699        C  0.60718170  0.08944040  0.98938792    -0.19900
C700        C  0.63285873  0.10518982  0.99351733    -0.10700
C701        C  0.55317911  0.08575109  0.98744884    -0.14900
C702        C  0.52849312  0.09832028  0.97838699    -0.28800
C703        C  0.65859276  0.15256717  0.00682497    -0.03000
C704        C  0.68492036  0.14637029  0.99569875    -0.39600
H705        H  0.60362255  0.17051705  0.01285232     0.13200
H706        H  0.55905212  0.14321721  0.00581860     0.12800
H707        H  0.60845915  0.06673445  0.98304341     0.12300
H708        H  0.65317205  0.09389678  0.99078773     0.12500
H709        H  0.55423407  0.06217049  0.98892433     0.15300
H710        H  0.52804586  0.12164125  0.97465823     0.14000
H711        H  0.65616868  0.17183658  0.02038403     0.11700
H712        H  0.68799770  0.12678631  0.98278666     0.13700
C713        C  0.48034068  0.13119781  0.81035324     0.19800
C714        C  0.49300224  0.15890828  0.81169167    -0.18300
C715        C  0.49808545  0.17493848  0.78641110    -0.10600
C716        C  0.49066274  0.16359431  0.75889966     0.22100
C717        C  0.47816049  0.13577603  0.75739433    -0.19900
C718        C  0.47315455  0.11958880  0.78282431    -0.10700
C719        C  0.49347560  0.18157158  0.73208854    -0.14900
C720        C  0.51382990  0.20231282  0.72943566    -0.28800
C721        C  0.47307027  0.11656708  0.83835037    -0.03000
C722        C  0.46628888  0.08819849  0.84118256    -0.39600
H723        H  0.49840389  0.16859113  0.83257525     0.13200
H724        H  0.50668739  0.19670845  0.78871877     0.12800
H725        H  0.47184231  0.12673839  0.73649638     0.12300
H726        H  0.46275034  0.09861778  0.78080146     0.12500
H727        H  0.47752270  0.17872927  0.71496710     0.15300
H728        H  0.52972313  0.20498136  0.74661493     0.14000
H729        H  0.47328460  0.13013892  0.85783696     0.11700
H730        H  0.46701564  0.07369398  0.82247495     0.13700
C731        C  0.35351504  0.98987811  0.35206233     0.19800
C732        C  0.34136005  0.97892127  0.37785344    -0.18300
C733        C  0.35677810  0.97930536  0.40398515    -0.10600
C734        C  0.38499586  0.99074835  0.40517116     0.22100
C735        C  0.39725700  0.00176778  0.37938028    -0.19900
C736        C  0.38167595  0.00154115  0.35311794    -0.10700
C737        C  0.40265127  0.98908706  0.43239953    -0.14900
C738        C  0.39045594  0.98801862  0.45908432    -0.28800
C739        C  0.33645121  0.98699836  0.32462588    -0.03000
C740        C  0.34107604  0.00242536  0.30006140    -0.39600
H741        H  0.31988479  0.96953649  0.37771368     0.13200
H742        H  0.34678185  0.96951926  0.42291927     0.12800
H743        H  0.41908422  0.01026007  0.37948528     0.12300
H744        H  0.39216508  0.00963119  0.33366698     0.12500
H745        H  0.42596213  0.98731698  0.43031068     0.15300
H746        H  0.36727016  0.99077327  0.46119313     0.14000
H747        H  0.31900421  0.97119908  0.32486059     0.11700
H748        H  0.35909181  0.01748385  0.29888543     0.13700
C749        C  0.36354574  0.80598170  0.53696767     0.19800
C750        C  0.36892468  0.77894144  0.52380378    -0.18300
C751        C  0.34705848  0.75784513  0.52234443    -0.10600
C752        C  0.31958418  0.76348019  0.53451926     0.22100
C753        C  0.31495671  0.79000192  0.54899311    -0.19900
C754        C  0.33661845  0.81096635  0.55026401    -0.10700
C755        C  0.29462586  0.74328606  0.53220653    -0.14900
C756        C  0.29451897  0.71787572  0.51758671    -0.28800
C757        C  0.38577148  0.82920057  0.53670486    -0.03000
C758        C  0.37792898  0.85704610  0.53271317    -0.39600
H759        H  0.38972177  0.77451867  0.51385411     0.13200
H760        H  0.35181926  0.73757913  0.51136035     0.12800
H761        H  0.29425222  0.79481791  0.55895107     0.12300
H762        H  0.33219353  0.83123058  0.56154700     0.12500
H763        H  0.27472946  0.75004740  0.54290606     0.15300
H764        H  0.31401808  0.70928967  0.50771782     0.14000
H765        H  0.40826215  0.82351474  0.54022212     0.11700
H766        H  0.35549804  0.86198084  0.52782049     0.13700
C767        C  0.25809806  0.96518709  0.67955838     0.19800
C768        C  0.28566774  0.95581559  0.68792815    -0.18300
C769        C  0.30886670  0.95739763  0.66853946    -0.10600
C770        C  0.30485040  0.96829740  0.64023836     0.22100
C771        C  0.27706927  0.97649053  0.63141411    -0.19900
C772        C  0.25385136  0.97505616  0.65086937    -0.10700
C773        C  0.32878692  0.96941615  0.61886779    -0.14900
C774        C  0.35660604  0.97251176  0.62663742    -0.28800
C775        C  0.23486710  0.96519138  0.70180888    -0.03000
C776        C  0.21151999  0.98255290  0.70056228    -0.39600
H777        H  0.28940374  0.94770430  0.70975316     0.13200
H778        H  0.32973944  0.94966111  0.67565241     0.12800
H779        H  0.27336961  0.98422093  0.60944533     0.12300
H780        H  0.23275901  0.98149541  0.64321131     0.12500
H781        H  0.32325613  0.96713033  0.59597060     0.15300
H782        H  0.36233601  0.97616163  0.64926540     0.14000
H783        H  0.23839207  0.95226922  0.72129585     0.11700
H784        H  0.20732544  0.99564355  0.68140393     0.13700
C785        C  0.49298876  0.15170234  0.63066875     0.19800
C786        C  0.48833031  0.14559131  0.60102992    -0.18300
C787        C  0.48437645  0.11684972  0.59138289    -0.10600
C788        C  0.48475821  0.09364175  0.61139182     0.22100
C789        C  0.48895603  0.09990177  0.64103278    -0.19900
C790        C  0.49298220  0.12848268  0.65061371    -0.10700
C791        C  0.47890130  0.06287137  0.60303487    -0.14900
C792        C  0.48019268  0.05199360  0.57571280    -0.28800
C793        C  0.49618797  0.18248961  0.64041030    -0.03000
C794        C  0.51013965  0.19003202  0.66505907    -0.39600
H795        H  0.48765909  0.16313993  0.58529427     0.13200
H796        H  0.48033085  0.11310541  0.56850117     0.12800
H797        H  0.48877197  0.08255305  0.65701781     0.12300
H798        H  0.49521867  0.13224877  0.67377348     0.12500
H799        H  0.47304402  0.04827451  0.62073235     0.15300
H800        H  0.48673271  0.06562081  0.55757131     0.14000
H801        H  0.48639309  0.19924982  0.62704554     0.11700
H802        H  0.52042633  0.17325462  0.67795595     0.13700
C803        C  0.33544952  0.62018557  0.52373040     0.19800
C804        C  0.35081698  0.60497379  0.50207812    -0.18300
C805        C  0.37978664  0.59718180  0.50639449    -0.10600
C806        C  0.39384698  0.60428728  0.53266030     0.22100
C807        C  0.37811837  0.61854302  0.55461312    -0.19900
C808        C  0.34923046  0.62611887  0.55039505    -0.10700
C809        C  0.42506903  0.59853336  0.53769068    -0.14900
C810        C  0.44011874  0.57730751  0.52424380    -0.28800
C811        C  0.30569483  0.63086216  0.51752428    -0.03000
C812        C  0.29552231  0.65562079  0.52947806    -0.39600
H813        H  0.34071797  0.60005545  0.48138954     0.13200
H814        H  0.39128503  0.58658649  0.48876435     0.12800
H815        H  0.38830673  0.62400592  0.57515732     0.12300
H816        H  0.33785420  0.63682753  0.56804893     0.12500
H817        H  0.43580312  0.61159733  0.55422396     0.15300
H818        H  0.42941008  0.56271745  0.50909834     0.14000
H819        H  0.29317665  0.62004778  0.50067018     0.11700
H820        H  0.30920165  0.66796209  0.54418916     0.13700
C821        C  0.62046933  0.50748456  0.34231646     0.19800
C822        C  0.59116694  0.51152684  0.34898685    -0.18300
C823        C  0.58250317  0.51823687  0.37755525    -0.10600
C824        C  0.60319678  0.52153416  0.39979846     0.22100
C825        C  0.63251003  0.51829312  0.39280278    -0.19900
C826        C  0.64107828  0.51122867  0.36448826    -0.10700
C827        C  0.59546756  0.52948099  0.43024801    -0.14900
C828        C  0.56968438  0.52387355  0.44263452    -0.28800
C829        C  0.62976854  0.50090624  0.31199532    -0.03000
C830        C  0.65205042  0.48285844  0.30688661    -0.39600
H831        H  0.57498159  0.50931936  0.33211349     0.13200
H832        H  0.55977051  0.52145282  0.38192950     0.12800
H833        H  0.64890965  0.52119072  0.40935963     0.12300
H834        H  0.66392612  0.50930681  0.35984809     0.12500
H835        H  0.61235420  0.53929859  0.44347539     0.15300
H836        H  0.55293453  0.51274844  0.43036969     0.14000
H837        H  0.61946773  0.51235701  0.29414907     0.11700
H838        H  0.66130744  0.47122087  0.32520804     0.13700
C839        C  0.51120083  0.34618088  0.62836543     0.19800
C840        C  0.48976385  0.36294950  0.61485859    -0.18300
C841        C  0.49646811  0.39021867  0.60296908    -0.10600
C842        C  0.52473708  0.40134364  0.60492401     0.22100
C843        C  0.54614769  0.38440927  0.61819537    -0.19900
C844        C  0.53956158  0.35706762  0.62964355    -0.10700
C845        C  0.53221478  0.43141773  0.59594124    -0.14900
C846        C  0.51830263  0.44635392  0.57507916    -0.28800
C847        C  0.50312033  0.31907301  0.64388175    -0.03000
C848        C  0.52163201  0.29686057  0.64732674    -0.39600
H849        H  0.46767074  0.35519151  0.61406153     0.13200
H850        H  0.47928448  0.40299761  0.59354403     0.12800
H851        H  0.56798581  0.39267445  0.62031228     0.12300
H852        H  0.55640669  0.34515752  0.64073289     0.12500
H853        H  0.55052111  0.44155396  0.60680474     0.15300
H854        H  0.50126560  0.43606144  0.56248837     0.14000
H855        H  0.48187783  0.31789194  0.65398069     0.11700
H856        H  0.54213267  0.29662201  0.63577845     0.13700
C857        C  0.65715726  0.25836372  0.99788732     0.19800
C858        C  0.63901695  0.27322198  0.01745772    -0.18300
C859        C  0.62367541  0.29787740  0.00852630    -0.10600
C860        C  0.62696241  0.30856572  0.98004256     0.22100
C861        C  0.64479965  0.29352971  0.96036349    -0.19900
C862        C  0.65946899  0.26839599  0.96904801    -0.10700
C863        C  0.61427099  0.33679412  0.97132718    -0.14900
C864        C  0.58726028  0.34474121  0.97851437    -0.28800
C865        C  0.67677776  0.23552132  0.00903701    -0.03000
C866        C  0.68590121  0.21273386  0.99296781    -0.39600
H867        H  0.63735457  0.26618298  0.03994174     0.13200
H868        H  0.61048650  0.30944215  0.02426149     0.12800
H869        H  0.64784643  0.30162772  0.93840190     0.12300
H870        H  0.67392865  0.25787016  0.95370306     0.12500
H871        H  0.62724074  0.35105866  0.95763128     0.15300
H872        H  0.57309628  0.32951693  0.98970911     0.14000
H873        H  0.68538637  0.23847754  0.03086946     0.11700
H874        H  0.67602799  0.20795659  0.97205673     0.13700
C875        C  0.54022818  0.38116490  0.79612060     0.19800
C876        C  0.52580428  0.38532214  0.76958799    -0.18300
C877        C  0.52617151  0.36341730  0.74810306    -0.10600
C878        C  0.54150521  0.33730318  0.75281070     0.22100
C879        C  0.55731707  0.33425183  0.77865358    -0.19900
C880        C  0.55659864  0.35577252  0.80006605    -0.10700
C881        C  0.54053420  0.31166612  0.73293418    -0.14900
C882        C  0.52138496  0.30749471  0.71127190    -0.28800
C883        C  0.53773751  0.40255206  0.82031452    -0.03000
C884        C  0.53225883  0.39303590  0.84746263    -0.39600
H885        H  0.51337243  0.40495388  0.76598034     0.13200
H886        H  0.51414813  0.36689317  0.72827082     0.12800
H887        H  0.56954066  0.31458041  0.78283644     0.12300
H888        H  0.56851793  0.35235410  0.82003917     0.12500
H889        H  0.55476839  0.29362933  0.73831822     0.15300
H890        H  0.50715019  0.32482813  0.70435106     0.14000
H891        H  0.54089120  0.42559137  0.81599332     0.11700
H892        H  0.52754642  0.37002912  0.85060317     0.13700
C893        C  0.62119976  0.47020836  0.15709010     0.19800
C894        C  0.59185875  0.47038979  0.14940982    -0.18300
C895        C  0.58353997  0.46931548  0.11997979    -0.10600
C896        C  0.60452928  0.46758414  0.09770968     0.22100
C897        C  0.63376124  0.46679020  0.10554892    -0.19900
C898        C  0.64202979  0.46811116  0.13474464    -0.10700
C899        C  0.59720209  0.46453316  0.06624268    -0.14900
C900        C  0.57214640  0.47315616  0.05410572    -0.28800
C901        C  0.63002502  0.47057879  0.18834901    -0.03000
C902        C  0.65508273  0.48289191  0.19656401    -0.39600
H903        H  0.57538836  0.47137931  0.16618971     0.13200
H904        H  0.56075117  0.46905310  0.11486214     0.12800
H905        H  0.65036874  0.46488983  0.08896407     0.12300
H906        H  0.66480592  0.46664943  0.13973314     0.12500
H907        H  0.61368608  0.45502441  0.05224680     0.15300
H908        H  0.55572772  0.48374926  0.06730276     0.14000
H909        H  0.61657594  0.45950988  0.20429261     0.11700
H910        H  0.66753017  0.49471580  0.18034222     0.13700
C911        C  0.33797906  0.37350298  0.97720346     0.19800
C912        C  0.34697579  0.40099694  0.98717660    -0.18300
C913        C  0.37576676  0.41008230  0.98376050    -0.10600
C914        C  0.39630115  0.39156910  0.97054725     0.22100
C915        C  0.38727309  0.36390450  0.96111274    -0.19900
C916        C  0.35864705  0.35490870  0.96447806    -0.10700
C917        C  0.42727934  0.39953554  0.96595914    -0.14900
C918        C  0.43989064  0.42490071  0.97381312    -0.28800
C919        C  0.30746914  0.36395779  0.98172191    -0.03000
C920        C  0.29484784  0.34364744  0.96476757    -0.39600
H921        H  0.33161906  0.41556907  0.99749151     0.13200
H922        H  0.38161202  0.43150989  0.99154231     0.12800
H923        H  0.40253155  0.34896876  0.95119890     0.12300
H924        H  0.35306129  0.33305975  0.95765250     0.12500
H925        H  0.44059968  0.38324070  0.95518760     0.15300
H926        H  0.42761129  0.44188383  0.98461244     0.14000
H927        H  0.29548124  0.37313151  0.99994338     0.11700
H928        H  0.30642934  0.33519328  0.94602668     0.13700
C929        C  0.89071713  0.90237363  0.47657387     0.19800
C930        C  0.87548104  0.89900990  0.50281112    -0.18300
C931        C  0.84928992  0.88366630  0.50346938    -0.10600
C932        C  0.83757168  0.87189910  0.47765453     0.22100
C933        C  0.85243441  0.87618379  0.45132565    -0.19900
C934        C  0.87858684  0.89135357  0.45071670    -0.10700
C935        C  0.81083064  0.85386752  0.47728635    -0.14900
C936        C  0.79079336  0.85406296  0.49859368    -0.28800
C937        C  0.91970848  0.91636672  0.47651229    -0.03000
C938        C  0.94100523  0.90584407  0.45954584    -0.39600
H939        H  0.88440547  0.90730707  0.52300058     0.13200
H940        H  0.83890339  0.88035633  0.52432361     0.12800
H941        H  0.84389882  0.86751916  0.43111927     0.12300
H942        H  0.88942397  0.89426662  0.42999098     0.12500
H943        H  0.80704775  0.84041532  0.45815045     0.15300
H944        H  0.79248993  0.86956201  0.51639968     0.14000
H945        H  0.92402938  0.93412900  0.49156960     0.11700
H946        H  0.93684519  0.88663289  0.44630465     0.13700
C947        C  0.57781325  0.88321454  0.50974042     0.19800
C948        C  0.59467993  0.87155909  0.53220886    -0.18300
C949        C  0.62259978  0.86151253  0.52667045    -0.10600
C950        C  0.63408133  0.86247408  0.49831731     0.22100
C951        C  0.61717779  0.87394849  0.47571964    -0.19900
C952        C  0.58933874  0.88455898  0.48139526    -0.10700
C953        C  0.66256776  0.84937519  0.49154364    -0.14900
C954        C  0.68451069  0.84902337  0.51067969    -0.28800
C955        C  0.54784405  0.89218496  0.51662192    -0.03000
C956        C  0.53387655  0.91417383  0.50337543    -0.39600
H957        H  0.58611214  0.87003184  0.55417156     0.13200
H958        H  0.63471921  0.85201907  0.54438676     0.12800
H959        H  0.62545682  0.87447801  0.45362124     0.12300
H960        H  0.57659757  0.89285269  0.46353010     0.12500
H961        H  0.66563306  0.83958057  0.47015213     0.15300
H962        H  0.68299256  0.86105995  0.53102989     0.14000
H963        H  0.53764819  0.88159632  0.53520070     0.11700
H964        H  0.54452839  0.92680198  0.48645343     0.13700
C965        C  0.62648358  0.68778137  0.50297647     0.19800
C966        C  0.64749478  0.68695382  0.48093805    -0.18300
C967        C  0.66407854  0.71144059  0.47447844    -0.10600
C968        C  0.66048798  0.73746486  0.49015491     0.22100
C969        C  0.63888100  0.73875211  0.51185557    -0.19900
C970        C  0.62200412  0.71409471  0.51821227    -0.10700
C971        C  0.68126791  0.76146983  0.48399886    -0.14900
C972        C  0.68583310  0.78485378  0.50119463    -0.28800
C973        C  0.61150479  0.66006033  0.51027861    -0.03000
C974        C  0.58673674  0.65767537  0.52561297    -0.39600
H975        H  0.65149866  0.66699692  0.46887182     0.13200
H976        H  0.68050214  0.70969256  0.45771376     0.12800
H977        H  0.63514862  0.75842674  0.52428569     0.12300
H978        H  0.60628276  0.71551159  0.53561193     0.12500
H979        H  0.69554719  0.75836189  0.46540165     0.15300
H980        H  0.67156170  0.78957600  0.51934738     0.14000
H981        H  0.62158348  0.64024956  0.50210928     0.11700
H982        H  0.57540198  0.67694155  0.53321532     0.13700
C983        C  0.81658011  0.74704817  0.45995338     0.19800
C984        C  0.81019769  0.72057824  0.44606504    -0.18300
C985        C  0.83117856  0.69904387  0.44299846    -0.10600
C986        C  0.85924709  0.70348123  0.45369032     0.22100
C987        C  0.86618411  0.73045845  0.46635733    -0.19900
C988        C  0.84496997  0.75205663  0.46972784    -0.10700
C989        C  0.88128019  0.68005906  0.45154315    -0.14900
C990        C  0.87387533  0.65190752  0.45478635    -0.28800
C991        C  0.79258336  0.76814418  0.46391165    -0.03000
C992        C  0.79183434  0.78960800  0.48399464    -0.39600
H993        H  0.78863003  0.71625830  0.43798807     0.13200
H994        H  0.82538566  0.67892170  0.43216219     0.12800
H995        H  0.88784171  0.73454136  0.47426315     0.12300
H996        H  0.85091650  0.77247899  0.47984754     0.12500
H997        H  0.90372222  0.68601386  0.44794281     0.15300
H998        H  0.85171547  0.64640391  0.46041970     0.14000
H999        H  0.77335289  0.76435444  0.45087092     0.11700
H1000       H  0.81067305  0.79456057  0.49711298     0.13700
C1001       C  0.47215467  0.89452927  0.90329663     0.19800
C1002       C  0.50059295  0.88589094  0.89682890    -0.18300
C1003       C  0.50613656  0.85775632  0.88608990    -0.10600
C1004       C  0.48335360  0.83777956  0.88211898     0.22100
C1005       C  0.45528415  0.84608876  0.89006633    -0.19900
C1006       C  0.44968498  0.87427853  0.90006928    -0.10700
C1007       C  0.48756110  0.80873619  0.86834984    -0.14900
C1008       C  0.50599063  0.80442563  0.84604637    -0.28800
C1009       C  0.46449644  0.92518519  0.90994204    -0.03000
C1010       C  0.48048015  0.94361373  0.92616444    -0.39600
H1011       H  0.51825848  0.90123098  0.89872720     0.13200
H1012       H  0.52809018  0.85180846  0.88052320     0.12800
H1013       H  0.43738727  0.83113549  0.88723999     0.12300
H1014       H  0.42758294  0.88051376  0.90473455     0.12500
H1015       H  0.47209760  0.79168935  0.87362006     0.15300
H1016       H  0.51941172  0.82236951  0.83863684     0.14000
H1017       H  0.44379765  0.93269782  0.90167987     0.11700
H1018       H  0.49991327  0.93609012  0.93699508     0.13700
C1019       C  0.51697962  0.59523452  0.88376451     0.19800
C1020       C  0.51148813  0.60265507  0.85465192    -0.18300
C1021       C  0.50918201  0.63181517  0.84619928    -0.10600
C1022       C  0.51251759  0.65443292  0.86671935     0.22100
C1023       C  0.51833308  0.64707337  0.89579727    -0.19900
C1024       C  0.52033856  0.61781676  0.90434129    -0.10700
C1025       C  0.51219163  0.68567015  0.85781070    -0.14900
C1026       C  0.49668413  0.69522305  0.83495961    -0.28800
C1027       C  0.52134969  0.56394192  0.89120259    -0.03000
C1028       C  0.51812242  0.55285024  0.91819484    -0.39600
H1029       H  0.50934562  0.58578479  0.83824455     0.13200
H1030       H  0.50579720  0.63650326  0.82337449     0.12800
H1031       H  0.52156915  0.66404446  0.91192468     0.12300
H1032       H  0.52550905  0.61307851  0.92679140     0.12500
H1033       H  0.52585743  0.70079957  0.86968091     0.15300
H1034       H  0.48252636  0.68002896  0.82382310     0.14000
H1035       H  0.52746764  0.54937780  0.87350310     0.11700
H1036       H  0.51056974  0.56665862  0.93588330     0.13700
C1037       C  0.49876170  0.88143241  0.69308495     0.19800
C1038       C  0.48636272  0.88347001  0.72098860    -0.18300
C1039       C  0.49260646  0.86265861  0.74241204    -0.10600
C1040       C  0.51178074  0.83956756  0.73634178     0.22100
C1041       C  0.52565600  0.83888645  0.70907766    -0.19900
C1042       C  0.51931877  0.85952586  0.68773537    -0.10700
C1043       C  0.51615092  0.81422782  0.75611033    -0.14900
C1044       C  0.50297309  0.81016116  0.78206402    -0.28800
C1045       C  0.48892257  0.90137038  0.66955261    -0.03000
C1046       C  0.48744981  0.89257972  0.64156327    -0.39600
H1047       H  0.47077326  0.90041455  0.72579585     0.13200
H1048       H  0.48157313  0.86433766  0.76311383     0.12800
H1049       H  0.54077798  0.82164691  0.70381648     0.12300
H1050       H  0.53018333  0.85792550  0.66688585     0.12500
H1051       H  0.52961285  0.79667595  0.74774706     0.15300
H1052       H  0.49063824  0.82747818  0.79223015     0.14000
H1053       H  0.48021710  0.92251569  0.67565699     0.11700
H1054       H  0.49396045  0.87056868  0.63582823     0.13700
C1055       C  0.50880908  0.62490047  0.69345470     0.19800
C1056       C  0.48373370  0.64020728  0.70114377    -0.18300
C1057       C  0.48266083  0.65662749  0.72679272    -0.10600
C1058       C  0.50709004  0.65877347  0.74490603     0.22100
C1059       C  0.53154462  0.64200400  0.73812737    -0.19900
C1060       C  0.53249650  0.62527761  0.71260706    -0.10700
C1061       C  0.50859711  0.67975397  0.76962542    -0.14900
C1062       C  0.49246535  0.70410669  0.77057991    -0.28800
C1063       C  0.51068264  0.61151586  0.66405038    -0.03000
C1064       C  0.52782804  0.58875210  0.65769814    -0.39600
H1065       H  0.46511695  0.64000782  0.68688110     0.13200
H1066       H  0.46289219  0.66811170  0.73188079     0.12800
H1067       H  0.55055574  0.64303292  0.75182973     0.12300
H1068       H  0.55235308  0.61407669  0.70717010     0.12500
H1069       H  0.52564836  0.67691276  0.78561326     0.15300
H1070       H  0.47766242  0.70875019  0.75289143     0.14000
H1071       H  0.49775280  0.62117330  0.64685705     0.11700
H1072       H  0.53934603  0.57758549  0.67495570     0.13700
C1073       C  0.87397781  0.47352152  0.90437139     0.19800
C1074       C  0.86340976  0.45254848  0.88473313    -0.18300
C1075       C  0.85172522  0.46081471  0.85778974    -0.10600
C1076       C  0.84990345  0.49043032  0.85010582     0.22100
C1077       C  0.86032687  0.51136636  0.86987622    -0.19900
C1078       C  0.87243832  0.50306847  0.89655925    -0.10700
C1079       C  0.83557172  0.50056217  0.82282491    -0.14900
C1080       C  0.83196995  0.48421738  0.79858168    -0.28800
C1081       C  0.88448554  0.46420173  0.93361922    -0.03000
C1082       C  0.90595876  0.47780865  0.94809849    -0.39600
H1083       H  0.86400403  0.42964540  0.89037698     0.13200
H1084       H  0.84329718  0.44405524  0.84356868     0.12800
H1085       H  0.85882873  0.53435587  0.86476848     0.12300
H1086       H  0.87966755  0.51984826  0.91146274     0.12500
H1087       H  0.82821626  0.52304966  0.82243199     0.15300
H1088       H  0.84168130  0.46274474  0.79718463     0.14000
H1089       H  0.87485860  0.44478869  0.94310687     0.11700
H1090       H  0.91748386  0.49562509  0.93774094     0.13700
C1091       C  0.87623787  0.52541766  0.58781227     0.19800
C1092       C  0.85409998  0.50583254  0.59534189    -0.18300
C1093       C  0.84409393  0.50383535  0.62417863    -0.10600
C1094       C  0.85554716  0.52203727  0.64595731     0.22100
C1095       C  0.87766052  0.54160952  0.63845851    -0.19900
C1096       C  0.88820882  0.54304834  0.60981089    -0.10700
C1097       C  0.84257123  0.52344961  0.67563269    -0.14900
C1098       C  0.83316671  0.50000242  0.69051554    -0.28800
C1099       C  0.88462166  0.52887912  0.55658784    -0.03000
C1100       C  0.91166194  0.53539512  0.54770389    -0.39600
H1101       H  0.84422820  0.49228989  0.57872902     0.13200
H1102       H  0.82651785  0.48909082  0.62914704     0.12800
H1103       H  0.88649123  0.55620400  0.65477375     0.12300
H1104       H  0.90477119  0.55885905  0.60465977     0.12500
H1105       H  0.84077306  0.54481320  0.68579032     0.15300
H1106       H  0.83687737  0.47821660  0.68203317     0.14000
H1107       H  0.86796454  0.52532638  0.54028664     0.11700
H1108       H  0.92892513  0.53677337  0.56363920     0.13700
C1109       C  0.68567192  0.49034525  0.86824472     0.19800
C1110       C  0.69082853  0.51368938  0.84926829    -0.18300
C1111       C  0.71649134  0.51533162  0.83315909    -0.10600
C1112       C  0.73765829  0.49339278  0.83547147     0.22100
C1113       C  0.73273739  0.47033566  0.85493254    -0.19900
C1114       C  0.70713389  0.46885455  0.87127139    -0.10700
C1115       C  0.76299276  0.49193919  0.81530295    -0.14900
C1116       C  0.77333306  0.51515371  0.80073974    -0.28800
C1117       C  0.65658776  0.48741171  0.88191599    -0.03000
C1118       C  0.65161733  0.47281611  0.90685959    -0.39600
H1119       H  0.67451597  0.53031511  0.84621868     0.13200
H1120       H  0.71875520  0.53298936  0.81780036     0.12800
H1121       H  0.74836669  0.45289690  0.85680501     0.12300
H1122       H  0.70363080  0.45009073  0.88506336     0.12500
H1123       H  0.77182235  0.47053344  0.81039501     0.15300
H1124       H  0.76464780  0.53666265  0.80518158     0.14000
H1125       H  0.63848444  0.49735878  0.87066837     0.11700
H1126       H  0.66964296  0.46426638  0.91927293     0.13700
C1127       C  0.68795099  0.52527223  0.62652986     0.19800
C1128       C  0.69023428  0.53358002  0.65582917    -0.18300
C1129       C  0.71632233  0.53100568  0.67059262    -0.10600
C1130       C  0.74089477  0.51970642  0.65649786     0.22100
C1131       C  0.73877883  0.51132747  0.62709369    -0.19900
C1132       C  0.71255977  0.51442845  0.61203077    -0.10700
C1133       C  0.76737845  0.51341372  0.67357838    -0.14900
C1134       C  0.77544725  0.53065491  0.69590719    -0.28800
C1135       C  0.65894332  0.52664424  0.61299350    -0.03000
C1136       C  0.65389823  0.53118782  0.58448708    -0.39600
H1137       H  0.67154075  0.54169882  0.66756525     0.13200
H1138       H  0.71679220  0.53662561  0.69351821     0.12800
H1139       H  0.75726957  0.50200565  0.61596848     0.12300
H1140       H  0.71130006  0.50730675  0.58957159     0.12500
H1141       H  0.77785485  0.49252740  0.67014211     0.15300
H1142       H  0.76441756  0.55134649  0.69893151     0.14000
H1143       H  0.64065142  0.52606634  0.62790931     0.11700
H1144       H  0.67174461  0.53386565  0.56932307     0.13700
loop_ 
_geom_bond_atom_site_label_1 
_geom_bond_atom_site_label_2 
_geom_bond_distance 
_geom_bond_site_symmetry_2 
_ccdc_geom_bond_type 
C1            C2   1.414       .  A
C1            C6   1.399       .  A
C1         C1134   1.485       .  S
C2            C3   1.413       .  A
C2         C1098   1.489       .  S
C3            C4   1.415       .  A
C3            H8   1.084       .  S
C4            C5   1.418       .  A
C4         C1080   1.494       .  S
C5            C6   1.398       .  A
C5         C1116   1.486       .  S
C6            H7   1.086       .  S
C9           C10   1.416       .  A
C9           C14   1.397       .  A
C9         C1062   1.485       .  S
C10          C11   1.414       .  A
C10        C1026   1.491       .  S
C11          C12   1.415       .  A
C11          H16   1.083       .  S
C12          C13   1.414       .  A
C12        C1008   1.488       .  S
C13          C14   1.401       .  A
C13        C1044   1.494       .  S
C14          H15   1.085       .  S
C17          C18   1.417       .  A
C17          C22   1.407       .  A
C17         C936   1.487       .  S
C18          C19   1.406       .  A
C18         C992   1.491       .  S
C19          C20   1.404       .  A
C19          H24   1.083       .  S
C20          C21   1.411       .  A
C20         C972   1.493       .  S
C21          C22   1.404       .  A
C21         C954   1.479       .  S
C22          H23   1.085       .  S
O25          C41   1.275       .  A
O25         Zn31   2.029       .  S
C26         C900   1.485       .  S
C26          O42   1.277       .  A
C26          O39   1.278       .  A
O27          C40   1.272       .  A
O27         Cd34   2.071       .  S
O28          C46   1.277       .  A
O28         Cd37   2.099       .  S
O29          C43   1.279       .  A
O29         Cd33   2.086       .  S
O30          C41   1.277       .  A
O30         Cd33   2.084       .  S
Zn31         O42   2.027   1_556  S
Zn31         O44   2.024       .  S
Zn31         O36   1.944       .  S
O32          C43   1.278       .  A
O32         Cd37   2.088       .  S
Cd33         O35   2.099       .  S
Cd33         O36   2.010       .  S
Cd34         O38   2.054       .  S
Cd34         O47   2.063       .  S
Cd34         O36   1.989       .  S
O35          C45   1.279       .  A
O36         Cd37   2.004       .  S
Cd37         O39   2.091   1_556  S
O38          C45   1.273       .  A
C40         C864   1.474       .  S
C40          O44   1.274       .  A
C41        C1118   1.482       .  S
C43        C1028   1.484       .  S
C45         C884   1.475       .  S
C46         C918   1.486       .  S
C46          O47   1.275       .  A
O48          C64   1.274       .  A
O48         Zn54   2.039       .  S
C49         C828   1.479       .  S
C49          O65   1.276       .  A
C49          O62   1.274       .  A
O50          C63   1.276       .  A
O50         Cd57   2.090       .  S
O51          C69   1.274       .  A
O51         Cd60   2.074       .  S
O52          C66   1.275       .  A
O52         Cd56   2.062       .  S
O53          C64   1.274       .  A
O53         Cd56   2.057       .  S
Zn54         O65   2.020       .  S
Zn54         O67   2.010       .  S
Zn54         O59   1.949       .  S
O55          C66   1.275       .  A
O55         Cd60   2.081       .  S
Cd56         O58   2.068       .  S
Cd56         O59   1.994       .  S
Cd57         O61   2.076       .  S
Cd57         O70   2.084       .  S
Cd57         O59   2.010       .  S
O58          C68   1.273       .  A
O59         Cd60   2.007       .  S
Cd60         O62   2.076       .  S
O61          C68   1.276       .  A
C63         C974   1.484       .  S
C63          O67   1.275       .  A
C64        C1136   1.482       .  S
C66         C846   1.477       .  S
C68        C1064   1.476       .  S
C69         C810   1.481       .  S
C69          O70   1.278       .  A
O71          C87   1.276       .  A
O71         Zn77   2.037       .  S
C72         C956   1.478       .  S
C72          O88   1.276       .  A
C72          O85   1.278       .  A
O73          C86   1.275       .  A
O73         Cd80   2.085       .  S
O74          C92   1.280       .  A
O74         Cd83   2.100   1_545  S
O75          C89   1.272       .  A
O75         Cd79   2.055       .  S
O76          C87   1.270       .  A
O76         Cd79   2.042       .  S
Zn77         O88   2.005       .  S
Zn77         O90   2.015       .  S
Zn77         O82   1.937       .  S
O78          C89   1.280       .  A
O78         Cd83   2.115       .  S
Cd79         O81   2.051       .  S
Cd79         O82   1.977       .  S
Cd80         O84   2.068       .  S
Cd80         O93   2.060   1_565  S
Cd80         O82   2.000       .  S
O81          C91   1.273       .  A
O82         Cd83   2.008       .  S
Cd83         O85   2.089       .  S
O84          C91   1.273       .  A
C86        C1046   1.477       .  S
C86          O90   1.273       .  A
C87         C758   1.469       .  S
C89         C738   1.481       .  S
C91         C774   1.471       .  S
C92         C792   1.483       .  S
C92          O93   1.277       .  A
C94          C95   1.411       .  A
C94          C99   1.407       .  A
C94         C848   1.477       .  S
C95          C96   1.401       .  A
C95         C882   1.491       .  S
C96          C97   1.398       .  A
C96         H101   1.086       .  S
C97          C98   1.417       .  A
C97         C720   1.484       .  S
C98          C99   1.413       .  A
C98         C794   1.489       .  S
C99         H100   1.083       .  S
O102        C118   1.277       .  A
O102       Zn108   2.038       .  S
C103        C702   1.483       .  S
C103        O119   1.274       .  A
C103        O116   1.280       .  A
O104        C117   1.274       .  A
O104       Cd111   2.074       .  S
O105        C123   1.280       .  A
O105       Cd114   2.110   1_565  S
O106        C120   1.274   1_556  A
O106       Cd110   2.061       .  S
O107        C118   1.272       .  A
O107       Cd110   2.060       .  S
Zn108       O119   2.017       .  S
Zn108       O121   2.026       .  S
Zn108       O113   1.944       .  S
O109        C120   1.282       .  A
O109       Cd114   2.117   1_554  S
Cd110       O112   2.086       .  S
Cd110       O113   1.997       .  S
Cd111       O115   2.066       .  S
Cd111       O124   2.052   1_545  S
Cd111       O113   1.992       .  S
O112        C122   1.275       .  A
O113       Cd114   2.023       .  S
Cd114       O116   2.110       .  S
O115        C122   1.273       .  A
C117        C722   1.481       .  S
C117        O121   1.276       .  A
C118        C686   1.475       .  S
C120        C648   1.482       .  S
C122        C666   1.478       .  S
C123       C1010   1.482       .  S
C123        O124   1.275       .  A
C125        C126   1.417       .  A
C125        C130   1.411       .  A
C125        C704   1.494   1_554  S
C126        C127   1.403       .  A
C126        C866   1.485   1_554  S
C127        C128   1.401       .  A
C127        H132   1.085       .  S
C128        C129   1.415       .  A
C128        C632   1.483       .  S
C129        C130   1.411       .  A
C129        C614   1.493       .  S
C130        H131   1.085       .  S
C133        C134   1.414       .  A
C133        C138   1.411       .  A
C133        C596   1.493       .  S
C134        C135   1.400       .  A
C134        C776   1.485       .  S
C135        C136   1.398       .  A
C135        H140   1.083       .  S
C136        C137   1.413   1_565  A
C136        C668   1.494       .  S
C137        C138   1.410   1_545  A
C137        C576   1.475       .  S
C138        H139   1.083   1_565  S
C141        C142   1.415       .  A
C141        C146   1.394       .  A
C141        C558   1.480       .  S
C142        C143   1.416       .  A
C142        C504   1.494       .  S
C143        C144   1.417       .  A
C143        H148   1.082   1_455  S
C144        C145   1.416       .  A
C144        C524   1.487   1_455  S
C145        C146   1.394       .  A
C145        C540   1.483       .  S
C146        H147   1.086       .  S
C149        C150   1.410       .  A
C149        C154   1.401       .  A
C149        C756   1.486       .  S
C150        C151   1.408       .  A
C150        C812   1.485       .  S
C151        C152   1.411       .  A
C151        H156   1.084       .  S
C152        C153   1.418       .  A
C152        C468   1.488       .  S
C153        C154   1.400       .  A
C153        C486   1.486       .  S
C154        H155   1.084       .  S
C157        C158   1.413       .  A
C157        C162   1.401       .  A
C157        C450   1.486       .  S
C158        C159   1.409       .  A
C158        C902   1.489       .  S
C159        C160   1.412       .  A
C159        H164   1.083       .  S
C160        C161   1.417       .  A
C160        C830   1.486       .  S
C161        C162   1.402       .  A
C161        C432   1.494       .  S
C162        H163   1.082       .  S
O165        C181   1.277       .  A
O165       Zn171   2.049       .  S
C166       C1100   1.486       .  S
C166        O182   1.278       .  A
C166        O179   1.278       .  A
O167        C180   1.277       .  A
O167       Cd174   2.083       .  S
O168        C186   1.279       .  A
O168       Cd177   2.093   1_455  S
O169        C183   1.273       .  A
O169       Cd173   2.042       .  S
O170        C181   1.269       .  A
O170       Cd173   2.036       .  S
Zn171       O182   2.041       .  S
Zn171       O184   2.013       .  S
Zn171       O176   1.954       .  S
O172        C183   1.279       .  A
O172       Cd177   2.109       .  S
Cd173       O175   2.069       .  S
Cd173       O176   1.983       .  S
Cd174       O178   2.094       .  S
Cd174       O187   2.063       .  S
Cd174       O176   2.005       .  S
O175        C185   1.273       .  A
O176       Cd177   2.014       .  S
Cd177       O179   2.095       .  S
O178        C185   1.277       .  A
C180        C990   1.474       .  S
C180        O184   1.274       .  A
C181        C434   1.471       .  S
C183        C416   1.482       .  S
C185        C542   1.483       .  S
C186        C470   1.475       .  S
C186        O187   1.275   1_455  A
O188        C204   1.272       .  A
O188       Zn194   2.018       .  S
C189        C938   1.476       .  S
C189        O205   1.272       .  A
C189        O202   1.280       .  A
O190        C203   1.274       .  A
O190       Cd197   2.082       .  S
O191        C209   1.279       .  A
O191       Cd200   2.102   1_545  S
O192        C206   1.278       .  A
O192       Cd196   2.072       .  S
O193        C204   1.275       .  A
O193       Cd196   2.079       .  S
Zn194       O205   1.995   1_455  S
Zn194       O207   1.994       .  S
Zn194       O199   1.934       .  S
O195        C206   1.279       .  A
O195       Cd200   2.095       .  S
Cd196       O198   2.080       .  S
Cd196       O199   2.000       .  S
Cd197       O201   2.078       .  S
Cd197       O210   2.074   1_565  S
Cd197       O199   2.010       .  S
O198        C208   1.276       .  A
O199       Cd200   2.017       .  S
Cd200       O202   2.107   1_455  S
O201        C208   1.276       .  A
C203        C560   1.477       .  S
C203        O207   1.272       .  A
C204        C488   1.479       .  S
C206        C594   1.485       .  S
C208        C398   1.480       .  S
C209        C378   1.488       .  S
C209        O210   1.277       .  A
O211        C227   1.278       .  A
O211       Zn217   2.045       .  S
C212       C1082   1.486       .  S
C212        O228   1.279       .  A
C212        O225   1.280       .  A
O213        C226   1.271       .  A
O213       Cd220   2.060       .  S
O214        C232   1.280       .  A
O214       Cd223   2.109   1_455  S
O215        C229   1.273       .  A
O215       Cd219   2.053       .  S
O216        C227   1.271       .  A
O216       Cd219   2.044       .  S
Zn217       O228   2.044   1_554  S
Zn217       O230   2.045       .  S
Zn217       O222   1.968       .  S
O218        C229   1.278       .  A
O218       Cd223   2.110       .  S
Cd219       O221   2.078       .  S
Cd219       O222   1.992       .  S
Cd220       O224   2.086       .  S
Cd220       O233   2.053       .  S
Cd220       O222   1.996       .  S
O221        C231   1.273       .  A
O222       Cd223   2.022       .  S
Cd223       O225   2.099   1_554  S
O224        C231   1.276       .  A
C226        C630   1.475       .  S
C226        O230   1.276       .  A
C227        C452   1.470       .  S
C229        C522   1.485       .  S
C231        C360   1.478       .  S
C232        C342   1.476       .  S
C232        O233   1.273   1_455  A
C234        C235   1.417       .  A
C234        C239   1.400       .  A
C234        C396   1.487       .  S
C235        C236   1.412       .  A
C235        C740   1.496   1_565  S
C236        C237   1.418       .  A
C236        H241   1.081   1_565  S
C237        C238   1.419       .  A
C237        C650   1.503       .  S
C238        C239   1.405       .  A
C238        C326   1.495       .  S
C239        H240   1.084       .  S
O242        C258   1.276       .  A
O242       Zn248   2.046       .  S
C243        C612   1.481       .  S
C243        O259   1.273       .  A
C243        O256   1.280       .  A
O244        C257   1.274       .  A
O244       Cd251   2.067       .  S
O245        C263   1.278       .  A
O245       Cd254   2.097   1_565  S
O246        C260   1.274       .  A
O246       Cd250   2.044   1_556  S
O247        C258   1.271       .  A
O247       Cd250   2.054       .  S
Zn248       O259   2.009   1_455  S
Zn248       O261   2.019       .  S
Zn248       O253   1.948       .  S
O249        C260   1.278       .  A
O249       Cd254   2.098   1_556  S
Cd250       O252   2.078       .  S
Cd250       O253   1.990       .  S
Cd251       O255   2.074       .  S
Cd251       O264   2.069   1_545  S
Cd251       O253   1.998       .  S
O252        C262   1.273       .  A
O253       Cd254   2.020       .  S
Cd254       O256   2.111   1_455  S
O255        C262   1.275       .  A
C257        C308   1.472       .  S
C257        O261   1.276       .  A
C258        C290   1.476       .  S
C260        C578   1.478       .  S
C262        C324   1.482       .  S
C263        C506   1.487       .  S
C263        O264   1.277       .  A
C265        C266   1.417       .  A
C265        C270   1.414       .  A
C265        C414   1.483       .  S
C266        C267   1.400       .  A
C266        C362   1.492       .  S
C267        C268   1.397       .  A
C267        H272   1.084       .  S
C268        C269   1.412       .  A
C268        C306   1.479       .  S
C269        C270   1.413       .  A
C269        C380   1.496   1_655  S
C270        H271   1.082       .  S
C273        C274   1.413       .  A
C273        C278   1.409       .  A
C273        C920   1.487       .  S
C274        C275   1.403       .  A
C274        C684   1.492       .  S
C275        C276   1.405       .  A
C275        H280   1.083       .  S
C276        C277   1.419       .  A
C276        C288   1.492       .  S
C277        C278   1.410       .  A
C277        C344   1.491       .  S
C278        H279   1.084       .  S
C281        C282   1.403       .  A
C281        C286   1.406   1_554  A
C281        C289   1.486       .  S
C282        C283   1.402       .  A
C282        H291   1.083       .  S
C283        C284   1.409   1_554  A
C283        H292   1.082       .  S
C284        C285   1.404       .  A
C284        C287   1.489       .  S
C285        C286   1.397       .  A
C285        H293   1.082       .  S
C286        H294   1.082       .  S
C287        H295   1.087       .  S
C287        C288   1.349       .  D
C288        H296   1.084   1_556  S
C289        H297   1.086       .  S
C289        C290   1.345       .  D
C290        H298   1.086   1_554  S
C299        C300   1.401   1_455  A
C299        C304   1.406       .  A
C299        C307   1.477       .  S
C300        C301   1.397       .  A
C300        H309   1.084       .  S
C301        C302   1.405   1_655  A
C301        H310   1.083       .  S
C302        C303   1.400       .  A
C302        C305   1.475       .  S
C303        C304   1.397       .  A
C303        H311   1.084       .  S
C304        H312   1.083       .  S
C305        H313   1.087       .  S
C305        C306   1.340   1_455  D
C306        H314   1.087       .  S
C307        H315   1.087       .  S
C307        C308   1.342       .  D
C308        H316   1.087       .  S
C317        C318   1.405       .  A
C317        C322   1.410   1_565  A
C317        C325   1.493       .  S
C318        C319   1.397       .  A
C318        H327   1.082       .  S
C319        C320   1.402       .  A
C319        H328   1.084       .  S
C320        C321   1.409   1_565  A
C320        C323   1.489   1_565  S
C321        C322   1.403       .  A
C321        H329   1.081       .  S
C322        H330   1.080       .  S
C323        H331   1.088   1_545  S
C323        C324   1.347       .  D
C324        H332   1.086       .  S
C325        H333   1.086       .  S
C325        C326   1.350       .  D
C326        H334   1.082   1_565  S
C335        C336   1.404       .  A
C335        C340   1.409       .  A
C335        C343   1.491       .  S
C336        C337   1.398       .  A
C336        H345   1.083       .  S
C337        C338   1.407       .  A
C337        H346   1.082       .  S
C338        C339   1.404       .  A
C338        C341   1.490   1_556  S
C339        C340   1.403       .  A
C339        H347   1.083   1_556  S
C340        H348   1.081       .  S
C341        H349   1.086       .  S
C341        C342   1.344       .  D
C342        H350   1.086       .  S
C343        H351   1.087       .  S
C343        C344   1.349       .  D
C344        H352   1.084   1_556  S
C353        C354   1.405   1_655  A
C353        C358   1.407       .  A
C353        C361   1.487   1_655  S
C354        C355   1.402       .  A
C354        H363   1.084       .  S
C355        C356   1.406   1_455  A
C355        H364   1.082       .  S
C356        C357   1.403       .  A
C356        C359   1.485       .  S
C357        C358   1.401       .  A
C357        H365   1.084       .  S
C358        H366   1.082       .  S
C359        H367   1.088       .  S
C359        C360   1.344       .  D
C360        H368   1.087       .  S
C361        H369   1.087       .  S
C361        C362   1.349   1_455  D
C362        H370   1.086       .  S
C371        C372   1.406       .  A
C371        C376   1.409       .  A
C371        C379   1.498       .  S
C372        C373   1.407       .  A
C372        H381   1.083       .  S
C373        C374   1.410   1_655  A
C373        H382   1.082   1_655  S
C374        C375   1.403       .  A
C374        C377   1.493       .  S
C375        C376   1.397   1_455  A
C375        H383   1.084       .  S
C376        H384   1.082       .  S
C377        H385   1.087       .  S
C377        C378   1.350       .  D
C378        H386   1.085   1_455  S
C379        H387   1.085       .  S
C379        C380   1.349   1_655  D
C380        H388   1.085       .  S
C389        C390   1.404   1_565  A
C389        C394   1.407       .  A
C389        C397   1.486       .  S
C390        C391   1.402       .  A
C390        H399   1.084       .  S
C391        C392   1.406   1_545  A
C391        H400   1.082       .  S
C392        C393   1.403       .  A
C392        C395   1.483       .  S
C393        C394   1.400       .  A
C393        H401   1.084       .  S
C394        H402   1.081       .  S
C395        H403   1.088       .  S
C395        C396   1.347       .  D
C396        H404   1.086   1_565  S
C397        H405   1.087       .  S
C397        C398   1.346       .  D
C398        H406   1.087       .  S
C407        C408   1.404       .  A
C407        C412   1.406   1_655  A
C407        C415   1.484       .  S
C408        C409   1.397       .  A
C408        H417   1.084       .  S
C409        C410   1.405       .  A
C409        H418   1.082       .  S
C410        C411   1.406   1_655  A
C410        C413   1.486       .  S
C411        C412   1.403       .  A
C411        H419   1.084       .  S
C412        H420   1.082       .  S
C413        H421   1.088   1_655  S
C413        C414   1.347       .  D
C414        H422   1.086       .  S
C415        H423   1.088       .  S
C415        C416   1.350       .  D
C416        H424   1.086   1_655  S
C425        C426   1.400       .  A
C425        C430   1.407       .  A
C425        C433   1.485       .  S
C426        C427   1.399       .  A
C426        H435   1.084       .  S
C427        C428   1.412       .  A
C427        H436   1.080       .  S
C428        C429   1.403       .  A
C428        C431   1.491       .  S
C429        C430   1.397       .  A
C429        H437   1.084       .  S
C430        H438   1.082       .  S
C431        H439   1.086       .  S
C431        C432   1.346       .  D
C432        H440   1.083       .  S
C433        H441   1.086       .  S
C433        C434   1.342       .  D
C434        H442   1.087       .  S
C443        C444   1.402       .  A
C443        C448   1.407       .  A
C443        C451   1.485       .  S
C444        C445   1.400       .  A
C444        H453   1.084       .  S
C445        C446   1.409       .  A
C445        H454   1.081       .  S
C446        C447   1.401       .  A
C446        C449   1.484       .  S
C447        C448   1.395       .  A
C447        H455   1.084       .  S
C448        H456   1.082       .  S
C449        H457   1.088       .  S
C449        C450   1.342       .  D
C450        H458   1.085       .  S
C451        H459   1.087       .  S
C451        C452   1.343       .  D
C452        H460   1.087       .  S
C461        C462   1.404       .  A
C461        C466   1.406       .  A
C461        C469   1.487       .  S
C462        C463   1.404       .  A
C462        H471   1.083       .  S
C463        C464   1.410       .  A
C463        H472   1.080       .  S
C464        C465   1.402       .  A
C464        C467   1.488       .  S
C465        C466   1.394       .  A
C465        H473   1.083       .  S
C466        H474   1.083       .  S
C467        H475   1.087       .  S
C467        C468   1.346       .  D
C468        H476   1.084       .  S
C469        H477   1.086       .  S
C469        C470   1.345       .  D
C470        H478   1.087       .  S
C479        C480   1.403       .  A
C479        C484   1.408       .  A
C479        C487   1.485       .  S
C480        C481   1.400       .  A
C480        H489   1.084       .  S
C481        C482   1.406       .  A
C481        H490   1.082       .  S
C482        C483   1.402       .  A
C482        C485   1.482       .  S
C483        C484   1.400       .  A
C483        H491   1.084       .  S
C484        H492   1.081       .  S
C485        H493   1.088       .  S
C485        C486   1.345       .  D
C486        H494   1.087       .  S
C487        H495   1.088       .  S
C487        C488   1.344       .  D
C488        H496   1.087       .  S
C497        C498   1.404       .  A
C497        C502   1.410   1_455  A
C497        C505   1.494       .  S
C498        C499   1.395       .  A
C498        H507   1.083       .  S
C499        C500   1.408       .  A
C499        H508   1.083       .  S
C500        C501   1.406   1_455  A
C500        C503   1.496   1_455  S
C501        C502   1.407       .  A
C501        H509   1.083       .  S
C502        H510   1.081       .  S
C503        H511   1.085       .  S
C503        C504   1.349   1_655  D
C504        H512   1.085       .  S
C505        H513   1.086       .  S
C505        C506   1.350       .  D
C506        H514   1.083   1_455  S
C515        C516   1.407   1_655  A
C515        C520   1.406       .  A
C515        C523   1.489   1_655  S
C516        C517   1.403       .  A
C516        H525   1.083       .  S
C517        C518   1.406   1_455  A
C517        H526   1.082       .  S
C518        C519   1.404       .  A
C518        C521   1.487       .  S
C519        C520   1.399       .  A
C519        H527   1.084       .  S
C520        H528   1.082       .  S
C521        H529   1.088       .  S
C521        C522   1.350       .  D
C522        H530   1.086   1_655  S
C523        H531   1.087       .  S
C523        C524   1.349   1_455  D
C524        H532   1.085       .  S
C533        C534   1.401   1_655  A
C533        C538   1.410       .  A
C533        C541   1.490       .  S
C534        C535   1.397       .  A
C534        H543   1.083       .  S
C535        C536   1.408   1_455  A
C535        H544   1.082       .  S
C536        C537   1.404       .  A
C536        C539   1.491       .  S
C537        C538   1.405       .  A
C537        H545   1.082       .  S
C538        H546   1.082       .  S
C539        H547   1.087       .  S
C539        C540   1.345   1_655  D
C540        H548   1.087       .  S
C541        H549   1.087       .  S
C541        C542   1.345       .  D
C542        H550   1.086       .  S
C551        C552   1.401       .  A
C551        C556   1.406       .  A
C551        C559   1.480       .  S
C552        C553   1.393       .  A
C552        H561   1.084       .  S
C553        C554   1.408       .  A
C553        H562   1.081       .  S
C554        C555   1.405       .  A
C554        C557   1.486       .  S
C555        C556   1.402       .  A
C555        H563   1.084   1_455  S
C556        H564   1.082       .  S
C557        H565   1.087   1_455  S
C557        C558   1.345       .  D
C558        H566   1.085       .  S
C559        H567   1.088       .  S
C559        C560   1.346       .  D
C560        H568   1.086       .  S
C569        C570   1.402       .  A
C569        C574   1.406   1_545  A
C569        C577   1.477       .  S
C570        C571   1.394       .  A
C570        H579   1.085       .  S
C571        C572   1.404       .  A
C571        H580   1.082       .  S
C572        C573   1.403   1_545  A
C572        C575   1.478   1_545  S
C573        C574   1.401       .  A
C573        H581   1.084       .  S
C574        H582   1.082       .  S
C575        H583   1.088       .  S
C575        C576   1.343   1_565  D
C576        H584   1.086       .  S
C577        H585   1.088       .  S
C577        C578   1.346       .  D
C578        H586   1.087       .  S
C587        C588   1.405       .  A
C587        C592   1.407       .  A
C587        C595   1.492       .  S
C588        C589   1.406       .  A
C588        H597   1.084       .  S
C589        C590   1.411       .  A
C589        H598   1.080       .  S
C590        C591   1.403       .  A
C590        C593   1.491       .  S
C591        C592   1.394       .  A
C591        H599   1.084       .  S
C592        H600   1.082       .  S
C593        H601   1.088       .  S
C593        C594   1.349       .  D
C594        H602   1.085       .  S
C595        H603   1.085   1_565  S
C595        C596   1.348       .  D
C596        H604   1.086       .  S
C605        C606   1.405       .  A
C605        C610   1.410       .  A
C605        C613   1.496       .  S
C606        C607   1.400       .  A
C606        H615   1.083   1_554  S
C607        C608   1.407       .  A
C607        H616   1.082   1_554  S
C608        C609   1.404       .  A
C608        C611   1.494       .  S
C609        C610   1.404       .  A
C609        H617   1.083       .  S
C610        H618   1.080       .  S
C611        H619   1.087       .  S
C611        C612   1.346       .  D
C612        H620   1.086       .  S
C613        H621   1.086   1_554  S
C613        C614   1.350       .  D
C614        H622   1.084       .  S
C623        C624   1.402   1_554  A
C623        C628   1.406       .  A
C623        C631   1.480       .  S
C624        C625   1.399   1_556  A
C624        H633   1.085       .  S
C625        C626   1.407       .  A
C625        H634   1.081   1_554  S
C626        C627   1.403       .  A
C626        C629   1.484       .  S
C627        C628   1.401       .  A
C627        H635   1.085       .  S
C628        H636   1.082       .  S
C629        H637   1.088       .  S
C629        C630   1.342       .  D
C630        H638   1.088       .  S
C631        H639   1.088   1_554  S
C631        C632   1.344       .  D
C632        H640   1.086       .  S
C641        C642   1.407       .  A
C641        C646   1.410   1_545  A
C641        C649   1.499       .  S
C642        C643   1.402       .  A
C642        H651   1.083       .  S
C643        C644   1.404       .  A
C643        H652   1.084       .  S
C644        C645   1.409   1_545  A
C644        C647   1.495       .  S
C645        C646   1.402       .  A
C645        H653   1.082       .  S
C646        H654   1.081       .  S
C647        H655   1.087       .  S
C647        C648   1.347       .  D
C648        H656   1.086       .  S
C649        H657   1.084       .  S
C649        C650   1.353   1_545  D
C650        H658   1.082       .  S
C659        C660   1.404       .  A
C659        C664   1.409   1_565  A
C659        C667   1.490       .  S
C660        C661   1.396       .  A
C660        H669   1.084       .  S
C661        C662   1.406       .  A
C661        H670   1.081       .  S
C662        C663   1.405   1_565  A
C662        C665   1.491   1_565  S
C663        C664   1.404       .  A
C663        H671   1.083       .  S
C664        H672   1.080       .  S
C665        H673   1.087       .  S
C665        C666   1.348       .  D
C666        H674   1.085   1_545  S
C667        H675   1.088       .  S
C667        C668   1.350       .  D
C668        H676   1.084   1_565  S
C677        C678   1.403       .  A
C677        C682   1.406       .  A
C677        C685   1.486       .  S
C678        C679   1.401       .  A
C678        H687   1.083       .  S
C679        C680   1.410       .  A
C679        H688   1.080       .  S
C680        C681   1.404       .  A
C680        C683   1.488       .  S
C681        C682   1.397       .  A
C681        H689   1.083   1_556  S
C682        H690   1.082   1_556  S
C683        H691   1.087       .  S
C683        C684   1.347       .  D
C684        H692   1.083       .  S
C685        H693   1.087       .  S
C685        C686   1.345       .  D
C686        H694   1.086       .  S
C695        C696   1.404       .  A
C695        C700   1.409   1_554  A
C695        C703   1.494       .  S
C696        C697   1.400       .  A
C696        H705   1.083       .  S
C697        C698   1.408   1_554  A
C697        H706   1.082       .  S
C698        C699   1.405       .  A
C698        C701   1.496       .  S
C699        C700   1.404       .  A
C699        H707   1.083       .  S
C700        H708   1.081       .  S
C701        H709   1.086       .  S
C701        C702   1.348       .  D
C702        H710   1.085       .  S
C703        H711   1.086       .  S
C703        C704   1.350   1_554  D
C704        H712   1.085       .  S
C713        C714   1.402       .  A
C713        C718   1.410       .  A
C713        C721   1.489       .  S
C714        C715   1.394       .  A
C714        H723   1.085       .  S
C715        C716   1.408       .  A
C715        H724   1.081       .  S
C716        C717   1.403       .  A
C716        C719   1.488       .  S
C717        C718   1.403       .  A
C717        H725   1.085       .  S
C718        H726   1.080       .  S
C719        H727   1.088       .  S
C719        C720   1.345       .  D
C720        H728   1.087       .  S
C721        H729   1.089       .  S
C721        C722   1.346       .  D
C722        H730   1.085       .  S
C731        C732   1.403       .  A
C731        C736   1.410   1_565  A
C731        C739   1.494       .  S
C732        C733   1.397       .  A
C732        H741   1.083       .  S
C733        C734   1.409       .  A
C733        H742   1.082       .  S
C734        C735   1.406   1_565  A
C734        C737   1.497       .  S
C735        C736   1.406       .  A
C735        H743   1.083       .  S
C736        H744   1.081       .  S
C737        H745   1.086       .  S
C737        C738   1.348       .  D
C738        H746   1.085       .  S
C739        H747   1.085       .  S
C739        C740   1.349   1_565  D
C740        H748   1.084       .  S
C749        C750   1.401       .  A
C749        C754   1.405       .  A
C749        C757   1.481       .  S
C750        C751   1.402       .  A
C750        H759   1.083       .  S
C751        C752   1.411       .  A
C751        H760   1.080       .  S
C752        C753   1.402       .  A
C752        C755   1.485       .  S
C753        C754   1.391       .  A
C753        H761   1.083       .  S
C754        H762   1.083       .  S
C755        H763   1.087       .  S
C755        C756   1.344       .  D
C756        H764   1.083       .  S
C757        H765   1.086       .  S
C757        C758   1.342       .  D
C758        H766   1.087       .  S
C767        C768   1.402       .  A
C767        C772   1.408       .  A
C767        C775   1.481       .  S
C768        C769   1.394       .  A
C768        H777   1.084       .  S
C769        C770   1.406       .  A
C769        H778   1.081       .  S
C770        C771   1.402       .  A
C770        C773   1.478       .  S
C771        C772   1.397       .  A
C771        H779   1.084       .  S
C772        H780   1.081       .  S
C773        H781   1.087       .  S
C773        C774   1.345       .  D
C774        H782   1.085       .  S
C775        H783   1.087       .  S
C775        C776   1.345       .  D
C776        H784   1.084       .  S
C785        C786   1.405       .  A
C785        C790   1.407       .  A
C785        C793   1.489       .  S
C786        C787   1.403       .  A
C786        H795   1.084       .  S
C787        C788   1.408       .  A
C787        H796   1.080       .  S
C788        C789   1.403       .  A
C788        C791   1.488       .  S
C789        C790   1.395       .  A
C789        H797   1.084       .  S
C790        H798   1.081       .  S
C791        H799   1.088       .  S
C791        C792   1.349       .  D
C792        H800   1.085       .  S
C793        H801   1.085       .  S
C793        C794   1.349       .  D
C794        H802   1.084       .  S
C803        C804   1.405       .  A
C803        C808   1.407       .  A
C803        C811   1.491       .  S
C804        C805   1.403       .  A
C804        H813   1.083       .  S
C805        C806   1.409       .  A
C805        H814   1.082       .  S
C806        C807   1.402       .  A
C806        C809   1.488       .  S
C807        C808   1.396       .  A
C807        H815   1.084       .  S
C808        H816   1.082       .  S
C809        H817   1.087       .  S
C809        C810   1.346       .  D
C810        H818   1.085       .  S
C811        H819   1.087       .  S
C811        C812   1.346       .  D
C812        H820   1.085       .  S
C821        C822   1.402       .  A
C821        C826   1.407       .  A
C821        C829   1.485       .  S
C822        C823   1.403       .  A
C822        H831   1.084       .  S
C823        C824   1.410       .  A
C823        H832   1.081       .  S
C824        C825   1.402       .  A
C824        C827   1.486       .  S
C825        C826   1.395       .  A
C825        H833   1.084       .  S
C826        H834   1.082       .  S
C827        H835   1.088       .  S
C827        C828   1.345       .  D
C828        H836   1.086       .  S
C829        H837   1.086       .  S
C829        C830   1.343       .  D
C830        H838   1.087       .  S
C839        C840   1.403       .  A
C839        C844   1.406       .  A
C839        C847   1.482       .  S
C840        C841   1.401       .  A
C840        H849   1.084       .  S
C841        C842   1.408       .  A
C841        H850   1.081       .  S
C842        C843   1.402       .  A
C842        C845   1.482       .  S
C843        C844   1.395       .  A
C843        H851   1.084       .  S
C844        H852   1.082       .  S
C845        H853   1.088       .  S
C845        C846   1.345       .  D
C846        H854   1.086       .  S
C847        H855   1.087       .  S
C847        C848   1.342       .  D
C848        H856   1.086       .  S
C857        C858   1.403   1_556  A
C857        C862   1.406       .  A
C857        C865   1.481   1_556  S
C858        C859   1.400       .  A
C858        H867   1.084       .  S
C859        C860   1.405   1_554  A
C859        H868   1.082       .  S
C860        C861   1.402       .  A
C860        C863   1.480       .  S
C861        C862   1.399       .  A
C861        H869   1.084       .  S
C862        H870   1.083       .  S
C863        H871   1.088       .  S
C863        C864   1.343       .  D
C864        H872   1.087       .  S
C865        H873   1.087       .  S
C865        C866   1.346   1_554  D
C866        H874   1.086       .  S
C875        C876   1.404       .  A
C875        C880   1.403       .  A
C875        C883   1.484       .  S
C876        C877   1.407       .  A
C876        H885   1.083       .  S
C877        C878   1.411       .  A
C877        H886   1.080       .  S
C878        C879   1.403       .  A
C878        C881   1.488       .  S
C879        C880   1.392       .  A
C879        H887   1.084       .  S
C880        H888   1.083       .  S
C881        H889   1.088       .  S
C881        C882   1.347       .  D
C882        H890   1.082       .  S
C883        H891   1.086       .  S
C883        C884   1.344       .  D
C884        H892   1.088       .  S
C893        C894   1.404       .  A
C893        C898   1.408       .  A
C893        C901   1.493       .  S
C894        C895   1.406       .  A
C894        H903   1.083       .  S
C895        C896   1.410       .  A
C895        H904   1.082       .  S
C896        C897   1.402       .  A
C896        C899   1.490       .  S
C897        C898   1.395       .  A
C897        H905   1.083       .  S
C898        H906   1.082       .  S
C899        H907   1.087       .  S
C899        C900   1.348       .  D
C900        H908   1.085       .  S
C901        H909   1.086       .  S
C901        C902   1.345       .  D
C902        H910   1.086       .  S
C911        C912   1.405       .  A
C911        C916   1.407       .  A
C911        C919   1.493       .  S
C912        C913   1.405       .  A
C912        H921   1.083       .  S
C913        C914   1.410       .  A
C913        H922   1.080       .  S
C914        C915   1.405       .  A
C914        C917   1.494       .  S
C915        C916   1.396       .  A
C915        H923   1.083       .  S
C916        H924   1.082       .  S
C917        H925   1.087       .  S
C917        C918   1.351       .  D
C918        H926   1.083       .  S
C919        H927   1.086       .  S
C919        C920   1.347       .  D
C920        H928   1.083       .  S
C929        C930   1.402       .  A
C929        C934   1.407       .  A
C929        C937   1.488       .  S
C930        C931   1.402       .  A
C930        H939   1.084       .  S
C931        C932   1.411       .  A
C931        H940   1.081       .  S
C932        C933   1.403       .  A
C932        C935   1.489       .  S
C933        C934   1.397       .  A
C933        H941   1.084       .  S
C934        H942   1.082       .  S
C935        H943   1.087       .  S
C935        C936   1.346       .  D
C936        H944   1.085       .  S
C937        H945   1.086       .  S
C937        C938   1.344       .  D
C938        H946   1.087       .  S
C947        C948   1.403       .  A
C947        C952   1.406       .  A
C947        C955   1.480       .  S
C948        C949   1.395       .  A
C948        H957   1.084       .  S
C949        C950   1.404       .  A
C949        H958   1.082       .  S
C950        C951   1.405       .  A
C950        C953   1.482       .  S
C951        C952   1.402       .  A
C951        H959   1.083       .  S
C952        H960   1.082       .  S
C953        H961   1.087       .  S
C953        C954   1.345       .  D
C954        H962   1.086       .  S
C955        H963   1.089       .  S
C955        C956   1.346       .  D
C956        H964   1.087       .  S
C965        C966   1.401       .  A
C965        C970   1.409       .  A
C965        C973   1.487       .  S
C966        C967   1.393       .  A
C966        H975   1.085       .  S
C967        C968   1.403       .  A
C967        H976   1.083       .  S
C968        C969   1.410       .  A
C968        C971   1.489       .  S
C969        C970   1.406       .  A
C969        H977   1.081       .  S
C970        H978   1.080       .  S
C971        H979   1.087       .  S
C971        C972   1.348       .  D
C972        H980   1.083       .  S
C973        H981   1.088       .  S
C973        C974   1.348       .  D
C974        H982   1.085       .  S
C983        C984   1.403       .  A
C983        C988   1.409       .  A
C983        C991   1.485       .  S
C984        C985   1.393       .  A
C984        H993   1.084       .  S
C985        C986   1.405       .  A
C985        H994   1.082       .  S
C986        C987   1.404       .  A
C986        C989   1.485       .  S
C987        C988   1.404       .  A
C987        H995   1.083       .  S
C988        H996   1.081       .  S
C989        H997   1.086       .  S
C989        C990   1.345       .  D
C990        H998   1.087       .  S
C991        H999   1.088       .  S
C991        C992   1.348       .  D
C992       H1000   1.085       .  S
C1001      C1002   1.406       .  A
C1001      C1006   1.403       .  A
C1001      C1009   1.482       .  S
C1002      C1003   1.405       .  A
C1002      H1011   1.083       .  S
C1003      C1004   1.409       .  A
C1003      H1012   1.082       .  S
C1004      C1005   1.401       .  A
C1004      C1007   1.487       .  S
C1005      C1006   1.396       .  A
C1005      H1013   1.084       .  S
C1006      H1014   1.083       .  S
C1007      H1015   1.087       .  S
C1007      C1008   1.345       .  D
C1008      H1016   1.086       .  S
C1009      H1017   1.088       .  S
C1009      C1010   1.348       .  D
C1010      H1018   1.086       .  S
C1019      C1020   1.403       .  A
C1019      C1024   1.409       .  A
C1019      C1027   1.491       .  S
C1020      C1021   1.399       .  A
C1020      H1029   1.083       .  S
C1021      C1022   1.409       .  A
C1021      H1030   1.082       .  S
C1022      C1023   1.404       .  A
C1022      C1025   1.492       .  S
C1023      C1024   1.403       .  A
C1023      H1031   1.084       .  S
C1024      H1032   1.081       .  S
C1025      H1033   1.086       .  S
C1025      C1026   1.347       .  D
C1026      H1034   1.085       .  S
C1027      H1035   1.088       .  S
C1027      C1028   1.348       .  D
C1028      H1036   1.086       .  S
C1037      C1038   1.404       .  A
C1037      C1042   1.406       .  A
C1037      C1045   1.490       .  S
C1038      C1039   1.403       .  A
C1038      H1047   1.083       .  S
C1039      C1040   1.410       .  A
C1039      H1048   1.080       .  S
C1040      C1041   1.405       .  A
C1040      C1043   1.491       .  S
C1041      C1042   1.396       .  A
C1041      H1049   1.083       .  S
C1042      H1050   1.082       .  S
C1043      H1051   1.087       .  S
C1043      C1044   1.350       .  D
C1044      H1052   1.083       .  S
C1045      H1053   1.087       .  S
C1045      C1046   1.347       .  D
C1046      H1054   1.086       .  S
C1055      C1056   1.401       .  A
C1055      C1060   1.408       .  A
C1055      C1063   1.483       .  S
C1056      C1057   1.397       .  A
C1056      H1065   1.084       .  S
C1057      C1058   1.409       .  A
C1057      H1066   1.081       .  S
C1058      C1059   1.403       .  A
C1058      C1061   1.488       .  S
C1059      C1060   1.399       .  A
C1059      H1067   1.084       .  S
C1060      H1068   1.082       .  S
C1061      H1069   1.087       .  S
C1061      C1062   1.345       .  D
C1062      H1070   1.086       .  S
C1063      H1071   1.087       .  S
C1063      C1064   1.344       .  D
C1064      H1072   1.086       .  S
C1073      C1074   1.406       .  A
C1073      C1078   1.406       .  A
C1073      C1081   1.493       .  S
C1074      C1075   1.404       .  A
C1074      H1083   1.084       .  S
C1075      C1076   1.408       .  A
C1075      H1084   1.081       .  S
C1076      C1077   1.406       .  A
C1076      C1079   1.494       .  S
C1077      C1078   1.402       .  A
C1077      H1085   1.084       .  S
C1078      H1086   1.082       .  S
C1079      H1087   1.088       .  S
C1079      C1080   1.351       .  D
C1080      H1088   1.085       .  S
C1081      H1089   1.087       .  S
C1081      C1082   1.350       .  D
C1082      H1090   1.086       .  S
C1091      C1092   1.406       .  A
C1091      C1096   1.407       .  A
C1091      C1099   1.492       .  S
C1092      C1093   1.404       .  A
C1092      H1101   1.084       .  S
C1093      C1094   1.406       .  A
C1093      H1102   1.082       .  S
C1094      C1095   1.404       .  A
C1094      C1097   1.488       .  S
C1095      C1096   1.402       .  A
C1095      H1103   1.084       .  S
C1096      H1104   1.082       .  S
C1097      H1105   1.088       .  S
C1097      C1098   1.348       .  D
C1098      H1106   1.086       .  S
C1099      H1107   1.088       .  S
C1099      C1100   1.349       .  D
C1100      H1108   1.087       .  S
C1109      C1110   1.402       .  A
C1109      C1114   1.408       .  A
C1109      C1117   1.490       .  S
C1110      C1111   1.399       .  A
C1110      H1119   1.084       .  S
C1111      C1112   1.410       .  A
C1111      H1120   1.080       .  S
C1112      C1113   1.405       .  A
C1112      C1115   1.493       .  S
C1113      C1114   1.402       .  A
C1113      H1121   1.083       .  S
C1114      H1122   1.082       .  S
C1115      H1123   1.087       .  S
C1115      C1116   1.346       .  D
C1116      H1124   1.085       .  S
C1117      H1125   1.087       .  S
C1117      C1118   1.347       .  D
C1118      H1126   1.086       .  S
C1127      C1128   1.401       .  A
C1127      C1132   1.408       .  A
C1127      C1135   1.483       .  S
C1128      C1129   1.392       .  A
C1128      H1137   1.084       .  S
C1129      C1130   1.406       .  A
C1129      H1138   1.083       .  S
C1130      C1131   1.406       .  A
C1130      C1133   1.486       .  S
C1131      C1132   1.406       .  A
C1131      H1139   1.083       .  S
C1132      H1140   1.082       .  S
C1133      H1141   1.086       .  S
C1133      C1134   1.347       .  D
C1134      H1142   1.087       .  S
C1135      H1143   1.087       .  S
C1135      C1136   1.346       .  D
C1136      H1144   1.086       .  S
