geometry optimzed in LAMMPS
_audit_creation_date              2020-11-30 
_audit_creation_method            'lammps2cif' 
_symmetry_space_group_name_H-M    'P1' 
_symmetry_Int_Tables_number       1 
_symmetry_cell_setting            triclinic 
loop_ 
_symmetry_equiv_pos_as_xyz 
  x,y,z 
_cell_length_a                    34.1189043 
_cell_length_b                    34.1047501389637 
_cell_length_c                    34.25053538351253 
_cell_angle_alpha                 88.56304314032924 
_cell_angle_beta                  93.07990575322657 
_cell_angle_gamma                 90.90240656623821 
loop_ 
_atom_site_label 
_atom_site_type_symbol 
_atom_site_fract_x 
_atom_site_fract_y 
_atom_site_fract_z 
_atom_site_charge 
O1          O  0.82244476  0.49970962  0.78346924    -0.74400
O2          O  0.88443148  0.50817660  0.69388187    -0.74500
O3          O  0.89938537  0.50579385  0.77257553    -0.74500
O4          O  0.80718574  0.50267966  0.70459184    -0.74600
O5          O  0.80401791  0.56783964  0.70608997    -0.74500
O6          O  0.89608782  0.57101976  0.77450208    -0.74500
O7          O  0.88175728  0.57331366  0.69473084    -0.74400
O8          O  0.81915427  0.56477849  0.78508459    -0.74500
Ni9        Ni  0.85355386  0.50184920  0.73848345     1.25400
Ni10       Ni  0.85023060  0.57163056  0.73997632     1.25400
C11         C  0.81146375  0.53073313  0.79990451     0.87800
C12         C  0.89246756  0.54181636  0.67872549     0.87700
C13         C  0.91108617  0.53856946  0.78681681     0.87700
C14         C  0.79058346  0.53485775  0.69377757     0.87900
O15         O  0.57824470  0.74438137  0.74971293    -0.74400
O16         O  0.58342497  0.82717184  0.82394010    -0.74500
O17         O  0.58179822  0.74662162  0.82816814    -0.74500
O18         O  0.57953423  0.82463882  0.74464492    -0.74600
O19         O  0.51448142  0.82684177  0.74617099    -0.74500
O20         O  0.51634482  0.74420249  0.82497771    -0.74500
O21         O  0.51819198  0.82455349  0.82578097    -0.74400
O22         O  0.51295084  0.74666934  0.74686887    -0.74500
Ni23       Ni  0.58310168  0.78583465  0.78667932     1.25400
Ni24       Ni  0.51319173  0.78579791  0.78599394     1.25400
C25         C  0.54473628  0.73121958  0.73675458     0.87800
C26         C  0.55151843  0.83930606  0.83725129     0.87700
C27         C  0.54940495  0.73081483  0.83838147     0.87700
C28         C  0.54660219  0.83900239  0.73179252     0.87900
O29         O  0.76071908  0.80214594  0.50022549    -0.74400
O30         O  0.84757451  0.87411927  0.49961395    -0.74500
O31         O  0.76671398  0.87998849  0.49564004    -0.74500
O32         O  0.84021528  0.79625445  0.50344596    -0.74600
O33         O  0.84034833  0.79591036  0.43822874    -0.74500
O34         O  0.76342491  0.87599394  0.43058241    -0.74500
O35         O  0.84544688  0.87363304  0.43457149    -0.74400
O36         O  0.76016939  0.79765630  0.43532765    -0.74500
Ni37       Ni  0.80381783  0.83841326  0.50198776     1.25400
Ni38       Ni  0.80230111  0.83598781  0.43227085     1.25400
C39         C  0.74560522  0.78863599  0.46821187     0.87800
C40         C  0.86300498  0.88312799  0.46727643     0.87700
C41         C  0.75041521  0.88891185  0.46207210     0.87700
C42         C  0.85358197  0.78377905  0.47192386     0.87900
O43         O  0.59487835  0.58439701  0.95452268    -0.80900
O44         O  0.66610089  0.42074251  0.98033381    -0.65600
O45         O  0.62599443  0.51542507  0.93471906    -1.12200
C46         C  0.50207186  0.46496877  0.97064720     1.06000
O47         O  0.61419222  0.38342208  0.96379963    -0.78800
O48         O  0.55327041  0.41375758  0.92177660    -0.66400
Ni49       Ni  0.64675867  0.56426363  0.95082396     1.34900
C50         C  0.55979370  0.43720754  0.89340667     0.84700
O51         O  0.69655935  0.48076871  0.93728546    -0.79300
O52         O  0.69969755  0.54624102  0.94513097    -0.89600
C53         C  0.65062605  0.38747195  0.97296378     0.84300
O54         O  0.64836955  0.55350391  0.00598769    -0.67800
O55         O  0.52084364  0.43720972  0.98828130    -0.87100
C56         C  0.65842540  0.52273471  0.02524913     0.85100
C57         C  0.71266834  0.51448724  0.93146796     1.06700
H58         H  0.59418905  0.47117610  0.00297768     0.38500
O59         O  0.59445537  0.46268191  0.97630484    -1.09700
O60         O  0.57008844  0.47316590  0.89737102    -0.66400
Ni61       Ni  0.57271262  0.50478234  0.94378156     1.26300
O62         O  0.66359438  0.49048549  0.00863473    -0.66600
O63         O  0.51842496  0.49240545  0.95128368    -0.78900
C64         C  0.57025347  0.58398932  0.92527789     0.84500
O65         O  0.55671798  0.55092368  0.91331493    -0.66100
Ni66       Ni  0.56871719  0.41298762  0.97596536     1.27400
Ni67       Ni  0.64673922  0.46940758  0.95857738     1.26100
H68         H  0.62948901  0.51429705  0.90694879     0.39100
O69         O  0.64818126  0.52987335  0.47111726    -0.80900
O70         O  0.56364478  0.58045042  0.62103268    -0.65600
O71         O  0.58484700  0.54405408  0.51871900    -1.12200
C72         C  0.62033225  0.67923858  0.49912095     1.06000
O73         O  0.53058261  0.62673765  0.58994698    -0.78800
O74         O  0.52889836  0.65378787  0.51761172    -0.66400
Ni75       Ni  0.62094205  0.50323833  0.51240083     1.34900
C76         C  0.52074043  0.62702902  0.49348651     0.84700
O77         O  0.55693317  0.50783373  0.58698396    -0.79300
O78         O  0.59634502  0.47213759  0.55151837    -0.89600
C79         C  0.54376543  0.61164123  0.62187089     0.84300
O80         O  0.66052290  0.52048307  0.54992650    -0.67800
O81         O  0.60272276  0.68628846  0.53014604    -0.87100
C82         C  0.65725849  0.53525159  0.58323563     0.85100
C83         C  0.57145273  0.47500325  0.57776385     1.06700
H84         H  0.62060814  0.61381428  0.56315504     0.38500
O85         O  0.59449741  0.60957085  0.55155305    -1.09700
O86         O  0.54567631  0.60249748  0.48328180    -0.66400
Ni87       Ni  0.60033063  0.59468285  0.49927892     1.26300
O88         O  0.62543751  0.54883295  0.59430574    -0.66600
O89         O  0.61708789  0.64643173  0.48177098    -0.78900
C90         C  0.63432366  0.55122485  0.44275944     0.84500
O91         O  0.60812644  0.57635019  0.44799427    -0.66100
Ni92       Ni  0.56671426  0.65607243  0.56011148     1.27400
Ni93       Ni  0.57459201  0.55977184  0.57057561     1.26100
H94         H  0.56023997  0.53596194  0.50587634     0.39100
O95         O  0.40125467  0.99956756  0.53615028    -0.80900
O96         O  0.57045767  0.94350791  0.48556199    -0.65600
O97         O  0.47446517  0.96159698  0.53627252    -1.12200
C98         C  0.53668688  0.07104117  0.59172945     1.06000
O99         O  0.61114049  0.98025458  0.52326575    -0.78800
O100        O  0.57271359  0.96683449  0.58944193    -0.66400
Ni101      Ni  0.42686584  0.96270599  0.50421508     1.34900
C102        C  0.54246800  0.96209164  0.60925414     0.84700
O103        O  0.50210123  0.90110716  0.49599556    -0.79300
O104        O  0.44535551  0.92370605  0.47016626    -0.89600
C105        C  0.60483299  0.95635009  0.49583995     0.84300
O106        O  0.44709020  0.00389948  0.47205180    -0.67800
O107        O  0.56506500  0.04739113  0.59510139    -0.87100
C108        C  0.47313767  0.99622416  0.44838267     0.85100
C109        C  0.46816320  0.89545187  0.47916349     1.06700
H110        H  0.53539903  0.02367864  0.50476274     0.38500
O111        O  0.53593740  0.00518639  0.52659982    -1.09700
O112        O  0.51226149  0.98374149  0.60302060    -0.66400
Ni113      Ni  0.49035458  0.01107141  0.55576426     1.26300
O114        O  0.50208601  0.97413845  0.45865124    -0.66600
O115        O  0.50535201  0.06195940  0.57270675    -0.78900
C116        C  0.40972636  0.01260192  0.57011691     0.84500
O117        O  0.44469899  0.01564012  0.58389279    -0.66100
Ni118      Ni  0.58418743  0.01172605  0.55756182     1.27400
Ni119      Ni  0.52132477  0.95282497  0.50973072     1.26100
H120        H  0.47186506  0.94232046  0.55716141     0.39100
O121        O  0.58328951  0.31600436  0.75677045    -0.74400
O122        O  0.57925666  0.23465132  0.68122718    -0.74500
O123        O  0.58082638  0.31494407  0.67826213    -0.74500
O124        O  0.58176539  0.23604959  0.75950056    -0.74600
O125        O  0.51639476  0.23511640  0.75684465    -0.74500
O126        O  0.51554375  0.31724074  0.67773617    -0.74500
O127        O  0.51395023  0.23641747  0.67832151    -0.74400
O128        O  0.51801000  0.31525482  0.75615763    -0.74500
Ni129      Ni  0.58358532  0.27543085  0.71886952     1.25400
Ni130      Ni  0.51363365  0.27601404  0.71708454     1.25400
C131        C  0.55122157  0.32943176  0.76863960     0.87800
C132        C  0.54587819  0.22084679  0.66868779     0.87700
C133        C  0.54834910  0.33043802  0.66593088     0.87700
C134        C  0.54928202  0.22187112  0.77105863     0.87900
O135        O  0.50779759  0.96873488  0.96193337    -0.80900
O136        O  0.43806404  0.13097499  0.98206058    -0.65600
O137        O  0.47732532  0.03951816  0.93918804    -1.12200
C138        C  0.60119237  0.08755453  0.98863393     1.06000
O139        O  0.48855672  0.16961067  0.96817743    -0.78800
O140        O  0.54970324  0.14117267  0.93238496    -0.66400
Ni141      Ni  0.45589756  0.98992677  0.95275058     1.34900
C142        C  0.54382576  0.11817591  0.90399678     0.84700
O143        O  0.40747570  0.07508930  0.93487639    -0.79300
O144        O  0.40327942  0.00903041  0.94015768    -0.89600
C145        C  0.45274059  0.16463731  0.97585710     0.84300
O146        O  0.45219110  0.99716258  0.00830837    -0.67800
O147        O  0.58290155  0.11580358  0.00262485    -0.87100
C148        C  0.44200472  0.02767683  0.02555091     0.85100
C149        C  0.39056085  0.04230840  0.92684393     1.06700
H150        H  0.50932582  0.08069219  0.01122416     0.38500
O151        O  0.50911879  0.09004981  0.98435615    -1.09700
O152        O  0.53366389  0.08221687  0.90801879    -0.66400
Ni153      Ni  0.53043417  0.04927417  0.95460226     1.26300
O154        O  0.43971237  0.06063110  0.00797492    -0.66600
O155        O  0.58443813  0.06055271  0.96862152    -0.78900
C156        C  0.53300742  0.97146679  0.93570261     0.84500
O157        O  0.54652499  0.00521805  0.92608186    -0.66100
Ni158      Ni  0.53461420  0.14002972  0.98518551     1.27400
Ni159      Ni  0.45715082  0.08439996  0.96094820     1.26100
H160        H  0.47399652  0.04222796  0.91104708     0.39100
O161        O  0.75687022  0.23734824  0.93824242    -0.74400
O162        O  0.83852704  0.16263425  0.92950477    -0.74500
O163        O  0.76038365  0.15783595  0.94321669    -0.74500
O164        O  0.83447488  0.24065931  0.92470258    -0.74600
O165        O  0.85012077  0.24134457  0.98878329    -0.74500
O166        O  0.77271833  0.16241161  0.00752301    -0.74500
O167        O  0.85041750  0.16334504  0.99423997    -0.74400
O168        O  0.77279038  0.24192130  0.00196995    -0.74500
Ni169      Ni  0.79679404  0.19925497  0.93163004     1.25400
Ni170      Ni  0.81180474  0.20217925  0.00044304     1.25400
C171        C  0.75260615  0.25329135  0.97124756     0.87800
C172        C  0.85957232  0.15312578  0.96025066     0.87700
C173        C  0.75350567  0.14725935  0.97839522     0.87700
C174        C  0.85548570  0.25361184  0.95380637     0.87900
O175        O  0.27616511  0.00966321  0.69403723    -0.74400
O176        O  0.19667556  0.02006875  0.76651059    -0.74500
O177        O  0.19808642  0.01725408  0.68788061    -0.74500
O178        O  0.27425795  0.01307779  0.77371845    -0.74600
O179        O  0.28050000  0.07815456  0.77036026    -0.74500
O180        O  0.20598612  0.08226974  0.68321908    -0.74500
O181        O  0.20280536  0.08520029  0.76268448    -0.74400
O182        O  0.28435094  0.07473305  0.69123620    -0.74500
Ni183      Ni  0.23608327  0.01270352  0.73053372     1.25400
Ni184      Ni  0.24362765  0.08244733  0.72659651     1.25400
C185        C  0.29286600  0.04043149  0.68018977     0.87800
C186        C  0.18840505  0.05404579  0.77838101     0.87700
C187        C  0.19029932  0.05028502  0.67086320     0.87700
C188        C  0.28817851  0.04525880  0.78769069     0.87900
O189        O  0.08109498  0.80208821  0.20691209    -0.74400
O190        O  0.07758824  0.73431333  0.12114824    -0.74500
O191        O  0.07492567  0.81271195  0.12963246    -0.74500
O192        O  0.08327408  0.72323628  0.19861435    -0.74600
O193        O  0.01802850  0.71881608  0.19846593    -0.74500
O194        O  0.00967677  0.81114078  0.13291908    -0.74500
O195        O  0.01225995  0.73221188  0.12112513    -0.74400
O196        O  0.01592377  0.79728263  0.21020822    -0.74500
Ni197      Ni  0.08151744  0.76821156  0.16397585     1.25400
Ni198      Ni  0.01154331  0.76471831  0.16558293     1.25400
C199        C  0.04923509  0.81164577  0.22189092     0.87800
C200        C  0.04456923  0.72037852  0.10838979     0.87700
C201        C  0.04119758  0.82766840  0.12171059     0.87700
C202        C  0.05197434  0.70562819  0.20920912     0.87900
O203        O  0.34997004  0.75222772  0.50186700    -0.74400
O204        O  0.26853452  0.67374451  0.50215454    -0.74500
O205        O  0.34893930  0.67359539  0.50082837    -0.74500
O206        O  0.26953476  0.75233196  0.50262056    -0.74600
O207        O  0.26512195  0.75342486  0.43754705    -0.74500
O208        O  0.34583615  0.67695277  0.43566567    -0.74500
O209        O  0.26572323  0.67474776  0.43692573    -0.74400
O210        O  0.34527808  0.75540119  0.43676229    -0.74500
Ni211      Ni  0.30942495  0.71279566  0.50420726     1.25400
Ni212      Ni  0.30530305  0.71511692  0.43444428     1.25400
C213        C  0.36177339  0.76614748  0.46936601     0.87800
C214        C  0.25249391  0.66275377  0.46952352     0.87700
C215        C  0.36217726  0.66433148  0.46795384     0.87700
C216        C  0.25312705  0.76484831  0.47015702     0.87900
O217        O  0.79726223  0.49960237  0.20599860    -0.74400
O218        O  0.72437075  0.50414164  0.28669568    -0.74500
O219        O  0.71945180  0.49994795  0.20645639    -0.74500
O220        O  0.80335101  0.50389917  0.28560503    -0.74600
O221        O  0.80395517  0.56913565  0.28144735    -0.74500
O222        O  0.72143873  0.56510429  0.20082418    -0.74500
O223        O  0.72465427  0.56932179  0.28108646    -0.74400
O224        O  0.79990099  0.56500964  0.20188537    -0.74500
Ni225      Ni  0.76098023  0.49961383  0.24654890     1.25400
Ni226      Ni  0.76237696  0.56948260  0.24128850     1.25400
C227        C  0.80933601  0.53141249  0.18972243     0.87800
C228        C  0.71328134  0.53750946  0.29808748     0.87700
C229        C  0.70911217  0.53176318  0.18825586     0.87700
C230        C  0.81734093  0.53711594  0.29694938     0.87900
O231        O  0.00685570  0.68059894  0.44671578    -0.80900
O232        O  0.05817251  0.51134189  0.39590748    -0.65600
O233        O  0.00539316  0.60607210  0.41367799    -1.12200
C234        C  0.96488568  0.54917082  0.52900233     1.06000
O235        O  0.02953822  0.47089230  0.43836126    -0.78800
O236        O  0.96066963  0.50886322  0.42709245    -0.66400
Ni237      Ni  0.03437338  0.65375121  0.40763497     1.34900
C238        C  0.93917752  0.53889110  0.42250055     0.84700
O239        O  0.03815258  0.57455945  0.35144924    -0.79300
O240        O  0.06324202  0.63350286  0.36569941    -0.84800
C241        C  0.05222925  0.47739253  0.41063366     0.84300
O242        O  0.07364021  0.63737758  0.44581236    -0.67800
O243        O  0.96099171  0.51983187  0.50691501    -0.87100
C244        C  0.09620600  0.60901597  0.44046549     0.85100
C245        C  0.05312498  0.60732953  0.34111202     1.06700
H246        H  0.04820379  0.54862075  0.47564545     0.38500
O247        O  0.02410072  0.54716138  0.45947082    -1.09700
O248        O  0.94480130  0.56909338  0.44365760    -0.66400
Ni249      Ni  0.99356030  0.59256482  0.46559004     1.26300
O250        O  0.08486487  0.57956807  0.42027266    -0.66600
O251        O  0.98316889  0.57960359  0.51825922    -0.78900
C252        C  0.97485751  0.67248936  0.46283060     0.84500
O253        O  0.96382617  0.63772028  0.47002686    -0.66100
Ni254      Ni  0.99656166  0.49902559  0.47057207     1.27400
Ni255      Ni  0.03263609  0.55932263  0.40508261     1.26100
H256        H  0.98199394  0.60735878  0.39650879     0.39100
O257        O  0.08429455  0.99954349  0.52050076    -0.80900
O258        O  0.07550651  0.91678520  0.37085887    -0.65600
O259        O  0.11675954  0.96728631  0.46018733    -1.12200
C260        C  0.09630849  0.08544990  0.39459140     1.06000
O261        O  0.07684297  0.96491807  0.32572463    -0.78800
O262        O  0.14290811  0.99438106  0.36288551    -0.66400
Ni263      Ni  0.10245985  0.94847025  0.51003692     1.34900
C264        C  0.16599216  0.00891259  0.38924013     0.84700
O265        O  0.11651041  0.89242832  0.43431001    -0.79300
O266        O  0.12271853  0.89729768  0.49989411    -0.89600
C267        C  0.07118231  0.92938931  0.33598716     0.84300
O268        O  0.04868407  0.93247356  0.49939946    -0.67800
O269        O  0.10694655  0.06456751  0.36707186    -0.87100
C270        C  0.02877787  0.92789837  0.46745349     0.85100
C271        C  0.12915818  0.87985169  0.46817245     1.06700
H272        H  0.04869600  0.99546359  0.40143089     0.38500
O273        O  0.07683489  0.99375340  0.40013936    -1.09700
O274        O  0.15353633  0.02484457  0.41992950    -0.66400
Ni275      Ni  0.10213337  0.01898226  0.44418873     1.26300
O276        O  0.04445396  0.93055388  0.43481576    -0.66600
O277        O  0.08655661  0.07054120  0.42696659    -0.78900
C278        C  0.10981767  0.02690547  0.52307380     0.84500
O279        O  0.12453395  0.04016515  0.49186799    -0.66100
Ni280      Ni  0.09173907  0.01287997  0.35038147     1.27400
Ni281      Ni  0.09549420  0.94199881  0.41608250     1.26100
H282        H  0.14498322  0.96534049  0.46019943     0.39100
O283        O  0.89375419  0.49176069  0.02884327    -0.80900
O284        O  0.05559267  0.43122738  0.96541447    -0.65600
O285        O  0.96378403  0.45139983  0.02100605    -1.12200
C286        C  0.03918141  0.56582425  0.05351933     1.06000
O287        O  0.08621406  0.44250421  0.02159456    -0.78800
O288        O  0.07048590  0.48068868  0.08467585    -0.66400
Ni289      Ni  0.91488359  0.45577164  0.99225168     1.34900
C290        C  0.04099544  0.46413508  0.09916526     0.84700
O291        O  0.98625400  0.39183425  0.97566471    -0.79300
O292        O  0.92890890  0.41739559  0.95470245    -0.89600
C293        C  0.08753693  0.43406415  0.98607473     0.84300
O294        O  0.93510419  0.49763798  0.96074130    -0.67800
O295        O  0.06951918  0.54953258  0.04146889    -0.87100
C296        C  0.96197415  0.49240062  0.93706963     0.85100
C297        C  0.95185297  0.38830212  0.95970606     1.06700
H298        H  0.02465249  0.50996788  0.98750817     0.38500
O299        O  0.02650556  0.49096366  0.00888967    -1.09700
O300        O  0.00658299  0.46857993  0.08422039    -0.66400
Ni301      Ni  0.98490411  0.49940846  0.04108538     1.26300
O302        O  0.98824042  0.46641238  0.94350537    -0.66600
O303        O  0.00713815  0.54754542  0.05987426    -0.78900
C304        C  0.90626389  0.50511822  0.06184266     0.84500
O305        O  0.94229380  0.50700226  0.07228189    -0.66100
Ni306      Ni  0.07814973  0.49581498  0.03158264     1.27400
Ni307      Ni  0.00816107  0.44087738  0.99150916     1.26100
H308        H  0.96133882  0.43156723  0.04141766     0.39100
O309        O  0.30362589  0.05828698  0.20644001    -0.74400
O310        O  0.39058407  0.05087613  0.28146447    -0.74500
O311        O  0.38199546  0.05532475  0.20096538    -0.74500
O312        O  0.31218373  0.05238852  0.28585468    -0.74600
O313        O  0.30873886  0.98739302  0.28173881    -0.74500
O314        O  0.38021336  0.99008814  0.19925006    -0.74500
O315        O  0.38743106  0.98566117  0.27960968    -0.74400
O316        O  0.30155302  0.99322045  0.20187049    -0.74500
Ni317      Ni  0.34745122  0.05651323  0.24374026     1.25400
Ni318      Ni  0.34452197  0.98678048  0.24054993     1.25400
C319        C  0.28853148  0.02723472  0.19129513     0.87800
C320        C  0.40173059  0.01721805  0.29477264     0.87700
C321        C  0.39088635  0.02324466  0.18477605     0.87700
C322        C  0.29894695  0.01903324  0.29787959     0.87900
O323        O  0.15011918  0.04402269  0.95870558    -0.80900
O324        O  0.06638728  0.08134614  0.11214055    -0.65600
O325        O  0.08805158  0.05166776  0.00838225    -1.12200
C326        C  0.11492761  0.18873597  0.99408246     1.06000
O327        O  0.03015596  0.12595893  0.08267498    -0.78800
O328        O  0.02615073  0.15777894  0.01157401    -0.66400
Ni329      Ni  0.12558367  0.01316670  0.99913656     1.34900
C330        C  0.01971881  0.13182194  0.98626534     0.84700
O331        O  0.06122054  0.01155853  0.07302687    -0.79300
O332        O  0.10196340  0.97844658  0.03621912    -0.89600
C333        C  0.04539650  0.11160195  0.11406922     0.84300
O334        O  0.16526047  0.02915658  0.03757495    -0.67800
O335        O  0.09771470  0.19332523  0.02582163    -0.87100
C336        C  0.16167641  0.04106459  0.07207768     0.85100
C337        C  0.07474367  0.97968793  0.06036579     1.06700
H338        H  0.12124141  0.12095378  0.05585844     0.38500
O339        O  0.09527070  0.11580956  0.04428741    -1.09700
O340        O  0.04555978  0.10839438  0.97655012    -0.66400
Ni341      Ni  0.10029642  0.10367692  0.99129972     1.26300
O342        O  0.12943295  0.05341090  0.08369979    -0.66600
O343        O  0.11316605  0.15675397  0.97535227    -0.78900
C344        C  0.13231417  0.06456500  0.93180343     0.84500
O345        O  0.10616927  0.08848879  0.93956392    -0.66100
Ni346      Ni  0.06385055  0.15962261  0.05444244     1.27400
Ni347      Ni  0.07784216  0.06426573  0.06066850     1.26100
H348        H  0.06364253  0.04283479  0.99563998     0.39100
O349        O  0.09766924  0.24917432  0.23234280    -0.74400
O350        O  0.11097405  0.33319952  0.30481286    -0.74500
O351        O  0.11255643  0.25339513  0.30986881    -0.74500
O352        O  0.09622912  0.32945885  0.22709600    -0.74600
O353        O  0.03217223  0.32839887  0.23661725    -0.74500
O354        O  0.04816575  0.25001732  0.31765906    -0.74500
O355        O  0.04681316  0.32912744  0.31437552    -0.74400
O356        O  0.03321147  0.24852640  0.24000523    -0.74500
Ni357      Ni  0.10669149  0.29141091  0.26814975     1.25400
Ni358      Ni  0.03783239  0.28904167  0.27741870     1.25400
C359        C  0.06333023  0.23429986  0.22509850     0.87800
C360        C  0.08069077  0.34465807  0.32160455     0.87700
C361        C  0.08299252  0.23799793  0.32636624     0.87700
C362        C  0.06166200  0.34254086  0.21903943     0.87900
O363        O  0.33427087  0.30673021  0.93511506    -0.74400
O364        O  0.25556595  0.38500404  0.92396873    -0.74500
O365        O  0.33588141  0.38630498  0.92983806    -0.74500
O366        O  0.25406924  0.30681842  0.93025158    -0.74600
O367        O  0.25340801  0.31226979  0.99496486    -0.74500
O368        O  0.33615147  0.38756069  0.99482967    -0.74500
O369        O  0.25707458  0.38996900  0.98893293    -0.74400
O370        O  0.33253683  0.30829577  0.00005034    -0.74500
Ni371      Ni  0.29525025  0.34619180  0.92738122     1.25400
Ni372      Ni  0.29499723  0.34970408  0.99693459     1.25400
C373        C  0.34573058  0.29390653  0.96922532     0.87800
C374        C  0.24174271  0.39833039  0.95484866     0.87700
C375        C  0.34982079  0.39960029  0.96260008     0.87700
C376        C  0.23893504  0.29826593  0.96296792     0.87900
C377        C  0.16326342  0.21649672  0.94724216    -0.21300
C378        C  0.14074260  0.22105504  0.98019982    -0.09300
C379        C  0.14765391  0.25436785  0.00320131     0.29500
C380        C  0.17860445  0.27990571  0.99578728    -0.21300
C381        C  0.20328521  0.27344934  0.96519505    -0.09400
C382        C  0.19418607  0.24274633  0.93953132     0.29500
F383        F  0.21655184  0.23658936  0.90873493    -0.19900
H384        H  0.15834280  0.19150541  0.92861049     0.17900
H385        H  0.18409826  0.30429590  0.01511514     0.17900
F386        F  0.12628834  0.26123464  0.03458076    -0.19900
C387        C  0.02103882  0.19206698  0.18124370    -0.21300
C388        C  0.05798405  0.19986035  0.19977544    -0.09300
C389        C  0.08897851  0.17407052  0.19436693     0.29500
C390        C  0.08339724  0.14230975  0.16944123    -0.21300
C391        C  0.04720831  0.13628449  0.14884611    -0.09400
C392        C  0.01576779  0.16097300  0.15562808     0.29500
F393        F  0.98046039  0.15623253  0.13593488    -0.19900
H394        H  0.99653063  0.21110593  0.18524888     0.17900
H395        H  0.10822670  0.12415214  0.16407401     0.17900
F396        F  0.12488313  0.17991758  0.21246886    -0.19900
C397        C  0.25227584  0.00409980  0.13037305    -0.21300
C398        C  0.25619151  0.03109258  0.16069395    -0.09300
C399        C  0.22969694  0.06238477  0.16069736     0.29500
C400        C  0.19956335  0.06592317  0.13141330    -0.21300
C401        C  0.19576422  0.03903295  0.10092962    -0.09400
C402        C  0.22269617  0.00817396  0.10056725     0.29500
F403        F  0.21947361  0.98094003  0.07231309    -0.19900
H404        H  0.27242712  0.97994602  0.12953610     0.17900
H405        H  0.17901028  0.08970306  0.13265346     0.17900
F406        F  0.23216934  0.08895415  0.18962661    -0.19900
C407        C  0.17258969  0.39949029  0.93100097    -0.21300
C408        C  0.20390013  0.41790853  0.95218651    -0.09300
C409        C  0.19608261  0.44663888  0.97901955     0.29500
C410        C  0.15749951  0.45362324  0.98765572    -0.21300
C411        C  0.12631523  0.43188309  0.96982297    -0.09400
C412        C  0.13381945  0.40623222  0.93993333     0.29500
F413        F  0.10433425  0.38472939  0.92248160    -0.19900
H414        H  0.17822414  0.37665873  0.91067563     0.17900
H415        H  0.15217207  0.47443321  0.01010858     0.17900
F416        F  0.22582767  0.46542421  0.99920129    -0.19900
C417        C  0.08882313  0.39131771  0.17159173    -0.21300
C418        C  0.05613301  0.37499288  0.18969415    -0.09300
C419        C  0.01879109  0.39063777  0.17997750     0.29500
C420        C  0.01439261  0.42100445  0.15197607    -0.21300
C421        C  0.04696948  0.43656398  0.13306611    -0.09400
C422        C  0.08444422  0.42162902  0.14360639     0.29500
F423        F  0.11679430  0.43487122  0.12566289    -0.19900
H424        H  0.11798778  0.38021165  0.17860424     0.17900
H425        H  0.98516250  0.43167909  0.14439245     0.17900
F426        F  0.98629915  0.37630368  0.19691406    -0.19900
C427        C  0.06227280  0.14949208  0.39162863    -0.21300
C428        C  0.09641935  0.12804788  0.38742427    -0.09300
C429        C  0.12800634  0.14571928  0.36868193     0.29500
C430        C  0.12455414  0.18328219  0.35221540    -0.21300
C431        C  0.08907517  0.20350280  0.35290763    -0.09400
C432        C  0.05831761  0.18688630  0.37410101     0.29500
F433        F  0.02357455  0.20545861  0.37571226    -0.19900
H434        H  0.03747467  0.13602256  0.40552708     0.17900
H435        H  0.14873548  0.19511288  0.33615258     0.17900
F436        F  0.16124452  0.12549198  0.36374431    -0.19900
C437        C  0.22577758  0.04687046  0.37257221    -0.21300
C438        C  0.20775464  0.01035454  0.37997972    -0.09300
C439        C  0.22451121  0.97648090  0.36585763     0.29500
C440        C  0.25587384  0.97951249  0.34130113    -0.21300
C441        C  0.27107096  0.01641949  0.32994568    -0.09400
C442        C  0.25712240  0.05005344  0.34764023     0.29500
F443        F  0.27176236  0.08624771  0.33886662    -0.19900
H444        H  0.21322572  0.07333753  0.38299943     0.17900
H445        H  0.26651857  0.95290145  0.32919776     0.17900
F446        F  0.20809847  0.94063527  0.37288396    -0.19900
C447        C  0.05593404  0.40539879  0.40529633    -0.21300
C448        C  0.06942470  0.44274567  0.39333248    -0.09300
C449        C  0.09395490  0.44586162  0.36149209     0.29500
C450        C  0.10111030  0.41261229  0.33982110    -0.21300
C451        C  0.08349215  0.37645594  0.34953419    -0.09400
C452        C  0.06222091  0.37278779  0.38327401     0.29500
F453        F  0.04493664  0.33810366  0.39331889    -0.19900
H454        H  0.03757101  0.40162749  0.42998192     0.17900
H455        H  0.11760700  0.41576945  0.31374086     0.17900
F456        F  0.10878162  0.48113469  0.34974579    -0.19900
C457        C  0.86156175  0.50302817  0.34731737    -0.21300
C458        C  0.84875717  0.53822482  0.32891755    -0.09300
C459        C  0.86563970  0.57387134  0.34217753     0.29500
C460        C  0.89401652  0.57397915  0.37340361    -0.21300
C461        C  0.90687594  0.53866954  0.39154257    -0.09400
C462        C  0.89032433  0.50312346  0.37799763     0.29500
F463        F  0.90154197  0.46828802  0.39470196    -0.19900
H464        H  0.84924500  0.47511196  0.33802101     0.17900
H465        H  0.90667298  0.60174591  0.38275321     0.17900
F466        F  0.85521074  0.60866018  0.32482020    -0.19900
C467        C  0.81901715  0.50406297  0.12485383    -0.21300
C468        C  0.83248406  0.52876285  0.15503153    -0.09300
C469        C  0.86792027  0.54960252  0.15181944     0.29500
C470        C  0.89080400  0.54364725  0.11989293    -0.21300
C471        C  0.87828898  0.51737970  0.09046687    -0.09400
C472        C  0.84145012  0.49865144  0.09256447     0.29500
F473        F  0.82834789  0.47298295  0.06498129    -0.19900
H474        H  0.79130543  0.48832599  0.12671033     0.17900
H475        H  0.91908245  0.55844950  0.11892671     0.17900
F476        F  0.88155223  0.57362557  0.18066520    -0.19900
C477        C  0.20637419  0.61394524  0.43838353    -0.21300
C478        C  0.21563577  0.63958613  0.46903031    -0.09300
C479        C  0.18633490  0.64897797  0.49451626     0.29500
C480        C  0.14770989  0.63598403  0.48697176    -0.21300
C481        C  0.13777231  0.61300079  0.45437164    -0.09400
C482        C  0.16783462  0.60029358  0.43129637     0.29500
F483        F  0.15941402  0.57823661  0.39940282    -0.19900
H484        H  0.22850257  0.60650613  0.41839124     0.17900
H485        H  0.12505107  0.64609022  0.50513030     0.17900
F486        F  0.19392738  0.67438434  0.52397383    -0.19900
C487        C  0.20633314  0.80620344  0.50535522    -0.21300
C488        C  0.21927383  0.79205563  0.47008822    -0.09300
C489        C  0.19878270  0.80345059  0.43486846     0.29500
C490        C  0.16763174  0.82961737  0.43497047    -0.21300
C491        C  0.15594032  0.84549286  0.46999117    -0.09400
C492        C  0.17511945  0.83254185  0.50545319     0.29500
F493        F  0.16486053  0.84631909  0.54025125    -0.19900
H494        H  0.22089259  0.79748929  0.53301826     0.17900
H495        H  0.15374252  0.83871370  0.40710291     0.17900
F496        F  0.20915491  0.79002893  0.39995646    -0.19900
C497        C  0.04238524  0.93684047  0.11005147    -0.21300
C498        C  0.05880420  0.94142205  0.07352060    -0.09300
C499        C  0.06210693  0.90823317  0.05006452     0.29500
C500        C  0.05331229  0.87090440  0.06479688    -0.21300
C501        C  0.03978275  0.86622512  0.10236060    -0.09400
C502        C  0.03273801  0.89935904  0.12436923     0.29500
F503        F  0.01972404  0.89514054  0.16100806    -0.19900
H504        H  0.03907989  0.96188537  0.12836140     0.17900
H505        H  0.05870071  0.84550184  0.04757931     0.17900
F506        F  0.07514302  0.91162770  0.01333253    -0.19900
C507        C  0.07732109  0.62693759  0.06711151    -0.21300
C508        C  0.04093505  0.60801982  0.06046314    -0.09300
C509        C  0.00627167  0.62980886  0.06070360     0.29500
C510        C  0.00794892  0.66864099  0.07204684    -0.21300
C511        C  0.04409666  0.68628135  0.08311743    -0.09400
C512        C  0.07906144  0.66591374  0.07809192     0.29500
F513        F  0.11487154  0.68228497  0.08696735    -0.19900
H514        H  0.10444536  0.61103987  0.06583234     0.17900
H515        H  0.98068205  0.68393137  0.07480151     0.17900
F516        F  0.97063594  0.61334621  0.05122241    -0.19900
C517        C  0.02326533  0.62055867  0.27515318    -0.21300
C518        C  0.05735382  0.61773501  0.29975275    -0.09300
C519        C  0.09181989  0.63701160  0.28877688     0.29500
C520        C  0.09071838  0.66320819  0.25681239    -0.21300
C521        C  0.05511059  0.67068428  0.23562310    -0.09400
C522        C  0.02200462  0.64696757  0.24319750     0.29500
F523        F  0.98767016  0.65132178  0.22169536    -0.19900
H524        H  0.99639948  0.60580605  0.28317756     0.17900
H525        H  0.11697928  0.68009296  0.25090305     0.17900
F526        F  0.12545484  0.63372593  0.31157217    -0.19900
C527        C  0.07062725  0.87726754  0.24110393    -0.21300
C528        C  0.05132018  0.84214115  0.25070537    -0.09300
C529        C  0.03583270  0.83662793  0.28748150     0.29500
C530        C  0.04106046  0.86591675  0.31506421    -0.21300
C531        C  0.06115652  0.90095516  0.30569187    -0.09400
C532        C  0.07525844  0.90672593  0.26816726     0.29500
F533        F  0.09566612  0.93970954  0.25835786    -0.19900
H534        H  0.08268924  0.88162525  0.21264785     0.17900
H535        H  0.03023878  0.86091458  0.34396349     0.17900
F536        F  0.01779556  0.80230786  0.29732832    -0.19900
C537        C  0.16393815  0.02268650  0.83828384    -0.21300
C538        C  0.16633563  0.05643960  0.81401563    -0.09300
C539        C  0.15431107  0.09258656  0.82789965     0.29500
C540        C  0.14220054  0.09493223  0.86610074    -0.21300
C541        C  0.14294090  0.06160763  0.89109058    -0.09400
C542        C  0.15298122  0.02528402  0.87661348     0.29500
F543        F  0.15260719  0.99230086  0.89962926    -0.19900
H544        H  0.17298273  0.99441295  0.82853657     0.17900
H545        H  0.13384592  0.12311326  0.87670371     0.17900
F546        F  0.15579588  0.12581962  0.80532883    -0.19900
C547        C  0.13397117  0.02294621  0.63175597    -0.21300
C548        C  0.16449404  0.05065230  0.63525554    -0.09300
C549        C  0.17340792  0.07451082  0.60275394     0.29500
C550        C  0.15389442  0.06837965  0.56641348    -0.21300
C551        C  0.12504953  0.03874125  0.56227110    -0.09400
C552        C  0.11411192  0.01714149  0.59581613     0.29500
F553        F  0.08610385  0.98842283  0.59370079    -0.19900
H554        H  0.12661939  0.00449078  0.65660874     0.17900
H555        H  0.16274202  0.08544054  0.54119650     0.17900
F556        F  0.20324540  0.10127853  0.60528827    -0.19900
C557        C  0.91276764  0.10855787  0.98421461    -0.21300
C558        C  0.89846608  0.13646781  0.95652534    -0.09300
C559        C  0.92495655  0.15716669  0.93315110     0.29500
C560        C  0.96533846  0.15281054  0.94026898    -0.21300
C561        C  0.97949643  0.12734473  0.97014946    -0.09400
C562        C  0.95315952  0.10375290  0.99082117     0.29500
F563        F  0.96654439  0.07935122  0.02035990    -0.19900
H564        H  0.89284497  0.09306900  0.00300467     0.17900
H565        H  0.98543841  0.17172308  0.92482920     0.17900
F566        F  0.91211055  0.18583623  0.90759026    -0.19900
C567        C  0.91868007  0.28502193  0.97472324    -0.21300
C568        C  0.88626657  0.28338784  0.94779267    -0.09300
C569        C  0.88196110  0.31257277  0.91826659     0.29500
C570        C  0.90643732  0.34581613  0.91956805    -0.21300
C571        C  0.93621468  0.34936072  0.94933793    -0.09400
C572        C  0.94391047  0.31748213  0.97519052     0.29500
F573        F  0.97275950  0.31963233  0.00397161    -0.19900
H574        H  0.92318994  0.26212545  0.99694828     0.17900
H575        H  0.90040260  0.36995014  0.89906240     0.17900
F576        F  0.85205177  0.31080185  0.89054784    -0.19900
C577        C  0.43682880  0.99213781  0.09118301    -0.21300
C578        C  0.43191636  0.02626284  0.06755681    -0.09300
C579        C  0.41698956  0.05993556  0.08463457     0.29500
C580        C  0.40652671  0.05905888  0.12342487    -0.21300
C581        C  0.40986695  0.02474083  0.14659406    -0.09400
C582        C  0.42591869  0.99128117  0.13030071     0.29500
F583        F  0.43062757  0.95761888  0.15191495    -0.19900
H584        H  0.44864054  0.96596089  0.07928525     0.17900
H585        H  0.39381728  0.08509874  0.13470888     0.17900
F586        F  0.41098120  0.09381966  0.06366364    -0.19900
C587        C  0.34690524  0.07876698  0.87838795    -0.21300
C588        C  0.35743965  0.04286417  0.89687942    -0.09300
C589        C  0.34234864  0.00784235  0.88049896     0.29500
C590        C  0.31989663  0.00888597  0.84511057    -0.21300
C591        C  0.31180517  0.04467828  0.82531146    -0.09400
C592        C  0.32458976  0.07979654  0.84304717     0.29500
F593        F  0.31648742  0.11531416  0.82597238    -0.19900
H594        H  0.35777762  0.10632215  0.89009072     0.17900
H595        H  0.30951964  0.98142722  0.83282031     0.17900
F596        F  0.35085910  0.97235400  0.89739706    -0.19900
C597        C  0.39953342  0.20214880  0.00445521    -0.21300
C598        C  0.42683896  0.19875174  0.97552097    -0.09300
C599        C  0.42777495  0.22709322  0.94514796     0.29500
C600        C  0.40158072  0.25819580  0.94364464    -0.21300
C601        C  0.37433465  0.26183717  0.97260416    -0.09400
C602        C  0.37361279  0.23361043  0.00326528     0.29500
F603        F  0.34674250  0.23538170  0.03098355    -0.19900
H604        H  0.39816821  0.18026965  0.02785266     0.17900
H605        H  0.40240967  0.27936889  0.91958062     0.17900
F606        F  0.45266726  0.22360447  0.91585561    -0.19900
C607        C  0.70196209  0.12172009  0.02114207    -0.21300
C608        C  0.72044654  0.12009967  0.98553040    -0.09300
C609        C  0.70270225  0.09807709  0.95502209     0.29500
C610        C  0.66495296  0.08244557  0.95848263    -0.21300
C611        C  0.64429534  0.08927285  0.99197747    -0.09400
C612        C  0.66388869  0.10690848  0.02421724     0.29500
F613        F  0.64491188  0.11311917  0.05729141    -0.19900
H614        H  0.71522543  0.13796827  0.04533175     0.17900
H615        H  0.65037284  0.06886229  0.93327083     0.17900
F616        F  0.72026974  0.09458296  0.92065750    -0.19900
C617        C  0.51606732  0.16695238  0.80735427    -0.21300
C618        C  0.54986859  0.19013727  0.80150502    -0.09300
C619        C  0.58371614  0.18362265  0.82609006     0.29500
C620        C  0.58251201  0.15708573  0.85769473    -0.21300
C621        C  0.54807382  0.13583504  0.86488966    -0.09400
C622        C  0.51522364  0.13973202  0.83866005     0.29500
F623        F  0.48134549  0.11982816  0.84527392    -0.19900
H624        H  0.48983935  0.17082769  0.78848721     0.17900
H625        H  0.60791895  0.15469452  0.87796482     0.17900
F626        F  0.61724469  0.20475499  0.82139541    -0.19900
C627        C  0.46750474  0.97675860  0.37887827    -0.21300
C628        C  0.46483310  0.00630831  0.40650229    -0.09300
C629        C  0.44608011  0.04140931  0.39496859     0.29500
C630        C  0.42872226  0.04596823  0.35716249    -0.21300
C631        C  0.42838390  0.01508361  0.33056018    -0.09400
C632        C  0.44889419  0.98070856  0.34151289     0.29500
F633        F  0.44908664  0.95003498  0.31703738    -0.19900
H634        H  0.48103716  0.94907885  0.38734724     0.17900
H635        H  0.41287370  0.07265039  0.34981306     0.17900
F636        F  0.44244620  0.07032342  0.42100903    -0.19900
C637        C  0.44837193  0.83014429  0.50418477    -0.21300
C638        C  0.45190702  0.85591888  0.47203360    -0.09300
C639        C  0.42903507  0.84896248  0.43740274     0.29500
C640        C  0.40105808  0.81853443  0.43611229    -0.21300
C641        C  0.39484994  0.79497605  0.46953050    -0.09400
C642        C  0.41994704  0.80009058  0.50318640     0.29500
F643        F  0.41598746  0.77725672  0.53580309    -0.19900
H644        H  0.46504961  0.83552802  0.53139283     0.17900
H645        H  0.38270565  0.81493297  0.40961126     0.17900
F646        F  0.43169766  0.87352176  0.40579443    -0.19900
C647        C  0.38569914  0.04995471  0.62554491    -0.21300
C648        C  0.37793633  0.02351673  0.59511354    -0.09300
C649        C  0.34103355  0.00451662  0.59173569     0.29500
C650        C  0.31339961  0.01040751  0.61954309    -0.21300
C651        C  0.32167431  0.03603334  0.65040105    -0.09400
C652        C  0.35762154  0.05652180  0.65277103     0.29500
F653        F  0.36635794  0.08119912  0.68258458    -0.19900
H654        H  0.41390162  0.06490117  0.62876711     0.17900
H655        H  0.28553842  0.99471669  0.61716291     0.17900
F656        F  0.33240677  0.97864376  0.56291961    -0.19900
C657        C  0.50651509  0.13389124  0.61059311    -0.21300
C658        C  0.53967024  0.10982085  0.61074105    -0.09300
C659        C  0.57545482  0.12400422  0.62781965     0.29500
C660        C  0.57758961  0.16095489  0.64477545    -0.21300
C661        C  0.54418870  0.18455565  0.64548837    -0.09400
C662        C  0.50860666  0.17070975  0.62774659     0.29500
F663        F  0.47558726  0.19244263  0.62727006    -0.19900
H664        H  0.47859968  0.12409700  0.59743514     0.17900
H665        H  0.60532281  0.17054280  0.65848582     0.17900
F666        F  0.60846826  0.10225878  0.62839672    -0.19900
C667        C  0.46619819  0.64282040  0.44492958    -0.21300
C668        C  0.47937070  0.62375857  0.47966058    -0.09300
C669        C  0.45187888  0.61062936  0.50644828     0.29500
C670        C  0.41230496  0.62019682  0.50044050    -0.21300
C671        C  0.39959339  0.64294340  0.46762624    -0.09400
C672        C  0.42649056  0.65216284  0.43867780     0.29500
F673        F  0.41563880  0.67456375  0.40673196    -0.19900
H674        H  0.48711635  0.65368155  0.42440372     0.17900
H675        H  0.39225897  0.61258748  0.52301087     0.17900
F676        F  0.46398512  0.59209764  0.54043450    -0.19900
C677        C  0.66860468  0.51181237  0.39484366    -0.21300
C678        C  0.65092395  0.54722305  0.40380229    -0.09300
C679        C  0.65099450  0.57834245  0.37601977     0.29500
C680        C  0.67016223  0.57457809  0.34109653    -0.21300
C681        C  0.68891064  0.53952655  0.33271929    -0.09400
C682        C  0.68702348  0.50774073  0.35969979     0.29500
F683        F  0.70447634  0.47317796  0.35315965    -0.19900
H684        H  0.66861611  0.48716390  0.41542345     0.17900
H685        H  0.67098987  0.59948368  0.32089711     0.17900
F686        F  0.63410186  0.61297905  0.38322730    -0.19900
C687        C  0.58577027  0.40493712  0.59358080    -0.21300
C688        C  0.56147895  0.43740275  0.59836712    -0.09300
C689        C  0.52973177  0.43268378  0.62278759     0.29500
C690        C  0.52380663  0.39674565  0.64296614    -0.21300
C691        C  0.54966292  0.36533449  0.63943609    -0.09400
C692        C  0.58015790  0.36964048  0.61381688     0.29500
F693        F  0.60529286  0.33989854  0.60888134    -0.19900
H694        H  0.61036706  0.40696731  0.57488703     0.17900
H695        H  0.50015372  0.39409608  0.66277115     0.17900
F696        F  0.50490990  0.46266004  0.62764269    -0.19900
C697        C  0.70931604  0.34991079  0.99919974    -0.21300
C698        C  0.67577946  0.35230357  0.97366500    -0.09300
C699        C  0.66696001  0.32108917  0.94827423     0.29500
C700        C  0.69167966  0.28871195  0.94801298    -0.21300
C701        C  0.72519573  0.28634215  0.97353539    -0.09400
C702        C  0.73361644  0.31715727  0.99946352     0.29500
F703        F  0.76631177  0.31649910  0.02386559    -0.19900
H704        H  0.71676325  0.37349701  0.01899057     0.17900
H705        H  0.68471402  0.26551487  0.92763109     0.17900
F706        F  0.63529535  0.32252660  0.92254979    -0.19900
C707        C  0.58849727  0.38022642  0.80809796    -0.21300
C708        C  0.55250852  0.36185442  0.79690893    -0.09300
C709        C  0.51807097  0.37448745  0.81353921     0.29500
C710        C  0.52017555  0.40285486  0.84232259    -0.21300
C711        C  0.55631431  0.41961171  0.85474898    -0.09400
C712        C  0.59042084  0.40887987  0.83675910     0.29500
F713        F  0.62599845  0.42345505  0.84943160    -0.19900
H714        H  0.61545688  0.37143118  0.79571862     0.17900
H715        H  0.49380987  0.40995907  0.85680742     0.17900
F716        F  0.48254440  0.35799543  0.80377483    -0.19900
C717        C  0.66871812  0.56124298  0.08664224    -0.21300
C718        C  0.66526289  0.52468168  0.06856768    -0.09300
C719        C  0.66950291  0.49042616  0.09228746     0.29500
C720        C  0.68029445  0.49300335  0.13221113    -0.21300
C721        C  0.68704087  0.52964006  0.14957931    -0.09400
C722        C  0.67937636  0.56381995  0.12657750     0.29500
F723        F  0.68430109  0.59995897  0.14197371    -0.19900
H724        H  0.66479329  0.58815488  0.06951934     0.17900
H725        H  0.68549413  0.46608943  0.14901674     0.17900
F726        F  0.66433998  0.45430555  0.07686548    -0.19900
C727        C  0.40267366  0.43486676  0.00108663    -0.21300
C728        C  0.38389414  0.42710705  0.96438287    -0.09300
C729        C  0.40108342  0.44171988  0.93039952     0.29500
C730        C  0.43844485  0.45933827  0.93315582    -0.21300
C731        C  0.45909037  0.46210472  0.96961581    -0.09400
C732        C  0.44015492  0.45172238  0.00369417     0.29500
F733        F  0.45927687  0.45476076  0.03930680    -0.19900
H734        H  0.38987621  0.42493842  0.02791813     0.17900
H735        H  0.45280039  0.46709420  0.90651123     0.17900
F736        F  0.38333539  0.43639394  0.89446215    -0.19900
C737        C  0.96700865  0.91305358  0.50310328    -0.21300
C738        C  0.98550648  0.91943113  0.46771207    -0.09300
C739        C  0.96197816  0.91793701  0.43249579     0.29500
C740        C  0.92181197  0.90860283  0.43280882    -0.21300
C741        C  0.90359531  0.90064812  0.46802750    -0.09400
C742        C  0.92672363  0.90380203  0.50341338     0.29500
F743        F  0.91100826  0.89634425  0.53846496    -0.19900
H744        H  0.98390809  0.91438374  0.53073762     0.17900
H745        H  0.90519858  0.90633863  0.40509803     0.17900
F746        F  0.97770642  0.92487958  0.39737593    -0.19900
C747        C  0.64167161  0.90638926  0.45949055    -0.21300
C748        C  0.64068166  0.94290718  0.47739473    -0.09300
C749        C  0.67636677  0.96444734  0.48309714     0.29500
C750        C  0.71219864  0.94781780  0.47555963    -0.21300
C751        C  0.71327675  0.91028888  0.46055903    -0.09400
C752        C  0.67774900  0.89025171  0.45089361     0.29500
F753        F  0.67818678  0.85352854  0.43653737    -0.19900
H754        H  0.61497026  0.88920031  0.45465272     0.17900
H755        H  0.73926388  0.96359912  0.48305163     0.17900
F756        F  0.67705581  0.00089085  0.49822708    -0.19900
C757        C  0.65099613  0.74608928  0.50366852    -0.21300
C758        C  0.64781032  0.71006896  0.48451855    -0.09300
C759        C  0.67463258  0.70255798  0.45560498     0.29500
C760        C  0.70534552  0.72928387  0.44840407    -0.21300
C761        C  0.71012300  0.76342959  0.47025488    -0.09400
C762        C  0.68179493  0.77228947  0.49686463     0.29500
F763        F  0.68448914  0.80600588  0.51719328    -0.19900
H764        H  0.63069083  0.75334701  0.52553951     0.17900
H765        H  0.72668293  0.72216338  0.42747365     0.17900
F766        F  0.67282560  0.66846592  0.43598390    -0.19900
C767        C  0.91903853  0.76635194  0.45209446    -0.21300
C768        C  0.88647841  0.75700256  0.47394463    -0.09300
C769        C  0.88562121  0.72218157  0.49634967     0.29500
C770        C  0.91636450  0.69589088  0.49511850    -0.21300
C771        C  0.94813939  0.70412226  0.47144319    -0.09400
C772        C  0.94987029  0.74029469  0.45093571     0.29500
F773        F  0.97971630  0.74932913  0.42746360    -0.19900
H774        H  0.92009527  0.79356507  0.43510819     0.17900
H775        H  0.91428719  0.66817314  0.51108788     0.17900
F776        F  0.85390193  0.71235972  0.51699695    -0.19900
C777        C  0.56847720  0.93866184  0.88301420    -0.21300
C778        C  0.54395793  0.93574539  0.91481093    -0.09300
C779        C  0.52630581  0.89904529  0.92341912     0.29500
C780        C  0.53003174  0.86749213  0.89867887    -0.21300
C781        C  0.55257598  0.87116283  0.86577267    -0.09400
C782        C  0.57312487  0.90652697  0.85891256     0.29500
F783        F  0.59537811  0.91090227  0.82735920    -0.19900
H784        H  0.58272374  0.96628992  0.87574014     0.17900
H785        H  0.51456702  0.84022550  0.90481442     0.17900
F786        F  0.50396747  0.89387680  0.95480453    -0.19900
C787        C  0.53021910  0.66074886  0.85072066    -0.21300
C788        C  0.55035028  0.69480848  0.86352965    -0.09300
C789        C  0.57428475  0.69267425  0.89802562     0.29500
C790        C  0.57855933  0.65700261  0.91884972    -0.21300
C791        C  0.56005152  0.62221408  0.90520629    -0.09400
C792        C  0.53533448  0.62465285  0.87097167     0.29500
F793        F  0.51748306  0.59205810  0.85606491    -0.19900
H794        H  0.51209044  0.66168112  0.82376270     0.17900
H795        H  0.59778120  0.65645760  0.94506011     0.17900
F796        F  0.59400756  0.72498320  0.91130961    -0.19900
C797        C  0.51184636  0.89317320  0.69288929    -0.21300
C798        C  0.54553155  0.87019714  0.70015920    -0.09300
C799        C  0.57783939  0.87753368  0.67690400     0.29500
C800        C  0.57650801  0.90731889  0.64783204    -0.21300
C801        C  0.54302569  0.93073104  0.64084474    -0.09400
C802        C  0.51047617  0.92297768  0.66373355     0.29500
F803        F  0.47712030  0.94398241  0.65800889    -0.19900
H804        H  0.48640719  0.88827705  0.71006436     0.17900
H805        H  0.60194243  0.91187448  0.63057626     0.17900
F806        F  0.61060481  0.85547192  0.68158977    -0.19900
C807        C  0.57561738  0.67310090  0.70799154    -0.21300
C808        C  0.54276547  0.69720502  0.71049654    -0.09300
C809        C  0.50828121  0.68820750  0.68785279     0.29500
C810        C  0.50780363  0.65760053  0.66144394    -0.21300
C811        C  0.54128360  0.63489532  0.65742762    -0.09400
C812        C  0.57490452  0.64210826  0.68185330     0.29500
F813        F  0.60815080  0.62154371  0.67809254    -0.19900
H814        H  0.60232998  0.67886343  0.72557099     0.17900
H815        H  0.48176012  0.65289774  0.64251980     0.17900
F816        F  0.47565907  0.71026672  0.68947251    -0.19900
C817        C  0.92637377  0.55946259  0.85413936    -0.21300
C818        C  0.93716994  0.53765896  0.82225137    -0.09300
C819        C  0.96391907  0.50708235  0.82859819     0.29500
C820        C  0.97556653  0.49528111  0.86665824    -0.21300
C821        C  0.95993300  0.51324780  0.89878554    -0.09400
C822        C  0.93720200  0.54706745  0.89231301     0.29500
F823        F  0.92266814  0.56606861  0.92263689    -0.19900
H824        H  0.90559331  0.58309085  0.84985359     0.17900
H825        H  0.99358598  0.46948777  0.87079014     0.17900
F826        F  0.97531454  0.48593415  0.79823412    -0.19900
C827        C  0.93397851  0.51191131  0.58324842    -0.21300
C828        C  0.94701237  0.54792503  0.56762879    -0.09300
C829        C  0.94345063  0.58198291  0.58968312     0.29500
C830        C  0.92617369  0.57986543  0.62592767    -0.21300
C831        C  0.91290685  0.54376957  0.64139806    -0.09400
C832        C  0.91759871  0.50963699  0.61973226     0.29500
F833        F  0.90588308  0.47385036  0.63332610    -0.19900
H834        H  0.93676607  0.48514218  0.56732282     0.17900
H835        H  0.92313494  0.60658249  0.64186157     0.17900
F836        F  0.95621770  0.61744841  0.57619171    -0.19900
C837        C  0.78142915  0.48937719  0.85254565    -0.21300
C838        C  0.79008731  0.52682360  0.83668610    -0.09300
C839        C  0.77829777  0.55993613  0.85656464     0.29500
C840        C  0.75619185  0.55548671  0.88970839    -0.21300
C841        C  0.74509583  0.51803442  0.90398571    -0.09400
C842        C  0.75929608  0.48490889  0.88571993     0.29500
F843        F  0.75033997  0.44806331  0.89863748    -0.19900
H844        H  0.79086228  0.46323888  0.83861772     0.17900
H845        H  0.74588885  0.58171036  0.90283794     0.17900
F846        F  0.78690510  0.59677985  0.84341299    -0.19900
C847        C  0.73047732  0.56631098  0.66368701    -0.21300
C848        C  0.75586296  0.53421033  0.66619982    -0.09300
C849        C  0.74838670  0.50244715  0.64124928     0.29500
C850        C  0.71669064  0.50344906  0.61374123    -0.21300
C851        C  0.69152514  0.53561757  0.61115956    -0.09400
C852        C  0.69828611  0.56686715  0.63677665     0.29500
F853        F  0.67432460  0.59832661  0.63521972    -0.19900
H854        H  0.73546049  0.59101064  0.68269687     0.17900
H855        H  0.71142679  0.47874041  0.59478886     0.17900
F856        F  0.77211828  0.47081362  0.64271030    -0.19900
loop_ 
_geom_bond_atom_site_label_1 
_geom_bond_atom_site_label_2 
_geom_bond_distance 
_geom_bond_site_symmetry_2 
_ccdc_geom_bond_type 
O1           Ni9   1.917       .  S
O1           C11   1.281       .  A
O2           Ni9   1.908       .  S
O2           C12   1.279       .  A
O3           Ni9   1.906       .  S
O3           C13   1.280       .  A
O4           Ni9   1.911       .  S
O4           C14   1.280       .  A
O5          Ni10   1.912       .  S
O5           C14   1.281       .  A
O6          Ni10   1.910       .  S
O6           C13   1.279       .  A
O7          Ni10   1.933       .  S
O7           C12   1.285       .  A
O8          Ni10   1.928       .  S
O8           C11   1.284       .  A
Ni9         Ni10   2.386       .  S
C11         C838   1.491       .  S
C12         C831   1.488       .  S
C13         C818   1.466       .  S
C14         C848   1.475       .  S
O15         Ni23   1.921       .  S
O15          C25   1.283       .  A
O16         Ni23   1.925       .  S
O16          C26   1.281       .  A
O17         Ni23   1.929       .  S
O17          C27   1.284       .  A
O18         Ni23   1.931       .  S
O18          C28   1.284       .  A
O19         Ni24   1.931       .  S
O19          C28   1.284       .  A
O20         Ni24   1.924       .  S
O20          C27   1.281       .  A
O21         Ni24   1.921       .  S
O21          C26   1.282       .  A
O22         Ni24   1.914       .  S
O22          C25   1.281       .  A
Ni23        Ni24   2.384       .  S
C25         C808   1.484       .  S
C26         C781   1.478       .  S
C27         C788   1.482       .  S
C28         C798   1.499       .  S
O29         Ni37   1.906       .  S
O29          C39   1.280       .  A
O30         Ni37   1.916       .  S
O30          C40   1.280       .  A
O31         Ni37   1.916       .  S
O31          C41   1.282       .  A
O32         Ni37   1.913       .  S
O32          C42   1.279       .  A
O33         Ni38   1.900       .  S
O33          C42   1.278       .  A
O34         Ni38   1.915       .  S
O34          C41   1.279       .  A
O35         Ni38   1.938       .  S
O35          C40   1.288       .  A
O36         Ni38   1.933       .  S
O36          C39   1.284       .  A
Ni37        Ni38   2.389       .  S
C39         C761   1.477       .  S
C40         C741   1.499       .  S
C41         C751   1.470       .  S
C42         C768   1.456       .  S
O43         Ni49   1.920       .  S
O43          C64   1.273       .  A
O44         Ni67   1.915       .  S
O44          C53   1.269       .  A
O45         Ni49   1.883       .  S
O45         Ni67   1.882       .  S
O45         Ni61   1.889       .  S
O45          H68   0.967       .  S
C46          O63   1.272       .  A
C46          O55   1.273       .  A
C46         C731   1.467       .  S
O47         Ni66   1.933       .  S
O47          C53   1.272       .  A
O48         Ni66   1.902       .  S
O48          C50   1.270       .  A
Ni49         O52   1.938       .  S
Ni49         O54   1.914   1_556  S
C50          O60   1.279       .  A
C50         C711   1.466       .  S
O51         Ni67   1.916       .  S
O51          C57   1.282       .  A
O52          C57   1.285       .  A
C53         C698   1.485       .  S
O54          C56   1.267       .  A
O55         Ni66   1.914       .  S
C56          O62   1.270       .  A
C56         C718   1.492       .  S
C57         C841   1.492       .  S
H58          O59   0.966   1_554  S
O59         Ni67   1.924       .  S
O59         Ni61   1.928       .  S
O59         Ni66   1.896       .  S
O60         Ni61   1.940       .  S
Ni61         O65   1.936       .  S
Ni61         O63   1.923       .  S
O62         Ni67   1.931   1_554  S
C64          O65   1.280       .  A
C64         C791   1.496       .  S
O69         Ni75   1.934       .  S
O69          C90   1.274       .  A
O70         Ni93   1.940       .  S
O70          C79   1.272       .  A
O71         Ni75   1.897       .  S
O71         Ni93   1.920       .  S
O71         Ni87   1.912       .  S
O71          H94   0.966       .  S
C72          O89   1.280       .  A
C72          O81   1.278       .  A
C72         C758   1.493       .  S
O73         Ni92   1.900       .  S
O73          C79   1.261       .  A
O74         Ni92   1.895       .  S
O74          C76   1.264       .  A
Ni75         O78   1.909       .  S
Ni75         O80   1.910       .  S
C76          O86   1.271       .  A
C76         C668   1.468       .  S
O77         Ni93   1.941       .  S
O77          C83   1.285       .  A
O78          C83   1.276       .  A
C79         C811   1.477       .  S
O80          C82   1.270       .  A
O81         Ni92   1.915       .  S
C82          O88   1.267       .  A
C82         C851   1.470       .  S
C83         C688   1.492       .  S
H84          O85   0.966       .  S
O85         Ni93   1.930       .  S
O85         Ni87   1.895       .  S
O85         Ni92   1.897       .  S
O86         Ni87   1.936       .  S
Ni87         O91   1.912       .  S
Ni87         O89   1.937       .  S
O88         Ni93   1.914       .  S
C90          O91   1.271       .  A
C90         C678   1.487       .  S
O95        Ni101   1.936       .  S
O95         C116   1.273   1_565  A
O96        Ni119   1.943       .  S
O96         C105   1.280       .  A
O97        Ni101   1.911       .  S
O97        Ni119   1.912       .  S
O97        Ni113   1.891   1_565  S
O97         H120   0.966       .  S
C98         O115   1.260       .  A
C98         O107   1.269       .  A
C98         C658   1.488       .  S
O99        Ni118   1.894   1_565  S
O99         C105   1.267       .  A
O100       Ni118   1.906   1_565  S
O100        C102   1.271       .  A
Ni101       O104   1.926       .  S
Ni101       O106   1.907   1_565  S
C102        O112   1.283       .  A
C102        C801   1.502       .  S
O103       Ni119   1.933       .  S
O103        C109   1.280       .  A
O104        C109   1.270       .  A
C105        C748   1.490       .  S
O106        C108   1.269   1_545  A
O107       Ni118   1.937       .  S
C108        O114   1.280       .  A
C108        C628   1.480   1_565  S
C109        C638   1.471       .  S
H110        O111   0.966       .  S
O111       Ni119   1.940   1_545  S
O111       Ni113   1.909       .  S
O111       Ni118   1.923       .  S
O112       Ni113   1.966   1_565  S
Ni113       O117   1.886       .  S
Ni113       O115   1.898       .  S
O114       Ni119   1.962       .  S
C116        O117   1.263       .  A
C116        C648   1.475       .  S
O121       Ni129   1.921       .  S
O121        C131   1.283       .  A
O122       Ni129   1.919       .  S
O122        C132   1.282       .  A
O123       Ni129   1.912       .  S
O123        C133   1.282       .  A
O124       Ni129   1.912       .  S
O124        C134   1.280       .  A
O125       Ni130   1.925       .  S
O125        C134   1.283       .  A
O126       Ni130   1.926       .  S
O126        C133   1.282       .  A
O127       Ni130   1.918       .  S
O127        C132   1.282       .  A
O128       Ni130   1.915       .  S
O128        C131   1.281       .  A
Ni129      Ni130   2.385       .  S
C131        C708   1.487       .  S
C132        C661   1.486       .  S
C133        C691   1.480       .  S
C134        C618   1.484       .  S
O135       Ni141   1.930       .  S
O135        C156   1.277       .  A
O136       Ni159   1.900       .  S
O136        C145   1.263       .  A
O137       Ni141   1.889   1_545  S
O137       Ni159   1.876       .  S
O137       Ni153   1.887       .  S
O137        H160   0.967       .  S
C138        O155   1.272       .  A
C138        O147   1.273   1_556  A
C138        C611   1.469       .  S
O139       Ni158   1.936       .  S
O139        C145   1.272       .  A
O140       Ni158   1.906       .  S
O140        C142   1.270       .  A
Ni141       O144   1.942   1_565  S
Ni141       O146   1.936   1_556  S
C142        O152   1.275       .  A
C142        C621   1.468       .  S
O143       Ni159   1.899       .  S
O143        C149   1.279       .  A
O144        C149   1.286       .  A
C145        C598   1.472       .  S
O146        C148   1.272   1_565  A
O147       Ni158   1.915   1_554  S
C148        O154   1.263       .  A
C148        C578   1.497       .  S
C149        C588   1.485       .  S
H150        O151   0.966   1_554  S
O151       Ni159   1.915       .  S
O151       Ni153   1.919       .  S
O151       Ni158   1.902       .  S
O152       Ni153   1.935       .  S
Ni153       O157   1.916       .  S
Ni153       O155   1.915       .  S
O154       Ni159   1.905   1_554  S
C156        O157   1.275   1_565  A
C156        C778   1.491       .  S
O161       Ni169   1.923       .  S
O161        C171   1.283       .  A
O162       Ni169   1.914       .  S
O162        C172   1.280       .  A
O163       Ni169   1.915       .  S
O163        C173   1.282       .  A
O164       Ni169   1.914       .  S
O164        C174   1.280       .  A
O165       Ni170   1.904   1_556  S
O165        C174   1.281       .  A
O166       Ni170   1.907       .  S
O166        C173   1.279   1_554  A
O167       Ni170   1.906   1_556  S
O167        C172   1.280       .  A
O168       Ni170   1.918       .  S
O168        C171   1.281   1_554  A
Ni169      Ni170   2.389   1_556  S
C171        C701   1.482       .  S
C172        C558   1.465       .  S
C173        C608   1.475       .  S
C174        C568   1.468       .  S
O175       Ni183   1.907       .  S
O175        C185   1.279       .  A
O176       Ni183   1.896       .  S
O176        C186   1.278       .  A
O177       Ni183   1.905       .  S
O177        C187   1.280       .  A
O178       Ni183   1.918       .  S
O178        C188   1.282       .  A
O179       Ni184   1.909       .  S
O179        C188   1.280       .  A
O180       Ni184   1.911       .  S
O180        C187   1.279       .  A
O181       Ni184   1.916       .  S
O181        C186   1.282       .  A
O182       Ni184   1.917       .  S
O182        C185   1.281       .  A
Ni183      Ni184   2.390       .  S
C185        C651   1.466       .  S
C186        C538   1.473       .  S
C187        C548   1.465       .  S
C188        C591   1.483       .  S
O189       Ni197   1.894       .  S
O189        C199   1.277       .  A
O190       Ni197   1.888       .  S
O190        C200   1.275       .  A
O191       Ni197   1.905       .  S
O191        C201   1.279       .  A
O192       Ni197   1.915       .  S
O192        C202   1.282       .  A
O193       Ni198   1.914       .  S
O193        C202   1.281       .  A
O194       Ni198   1.915       .  S
O194        C201   1.279       .  A
O195       Ni198   1.907       .  S
O195        C200   1.282       .  A
O196       Ni198   1.910       .  S
O196        C199   1.279       .  A
Ni197      Ni198   2.392       .  S
C199        C528   1.450       .  S
C200        C511   1.466       .  S
C201        C501   1.458       .  S
C202        C521   1.480       .  S
O203       Ni211   1.917       .  S
O203        C213   1.282       .  A
O204       Ni211   1.913       .  S
O204        C214   1.280       .  A
O205       Ni211   1.923       .  S
O205        C215   1.284       .  A
O206       Ni211   1.929       .  S
O206        C216   1.284       .  A
O207       Ni212   1.917       .  S
O207        C216   1.282       .  A
O208       Ni212   1.912       .  S
O208        C215   1.279       .  A
O209       Ni212   1.917       .  S
O209        C214   1.282       .  A
O210       Ni212   1.921       .  S
O210        C213   1.282       .  A
Ni211      Ni212   2.385       .  S
C213        C641   1.485       .  S
C214        C478   1.474       .  S
C215        C671   1.481       .  S
C216        C488   1.493       .  S
O217       Ni225   1.909       .  S
O217        C227   1.280       .  A
O218       Ni225   1.917       .  S
O218        C228   1.281       .  A
O219       Ni225   1.919       .  S
O219        C229   1.283       .  A
O220       Ni225   1.923       .  S
O220        C230   1.283       .  A
O221       Ni226   1.922       .  S
O221        C230   1.282       .  A
O222       Ni226   1.921       .  S
O222        C229   1.283       .  A
O223       Ni226   1.924       .  S
O223        C228   1.283       .  A
O224       Ni226   1.920       .  S
O224        C227   1.281       .  A
Ni225      Ni226   2.385       .  S
C227        C468   1.467       .  S
C228        C681   1.488       .  S
C229        C721   1.491       .  S
C230        C458   1.491       .  S
O231       Ni237   1.933       .  S
O231        C252   1.273   1_455  A
O232       Ni255   1.907       .  S
O232        C241   1.269       .  A
O233       Ni237   1.902       .  S
O233       Ni255   1.895       .  S
O233       Ni249   1.889   1_455  S
O233        H256   0.967   1_455  S
C234        O251   1.260       .  A
C234        O243   1.270       .  A
C234        C828   1.486       .  S
O235       Ni254   1.904   1_455  S
O235        C241   1.270       .  A
O236       Ni254   1.903       .  S
O236        C238   1.271       .  A
Ni237       O240   1.932       .  S
Ni237       O242   1.901       .  S
C238        O248   1.280       .  A
C238        C461   1.488       .  S
O239       Ni255   1.915       .  S
O239        C245   1.272       .  A
O240        C245   1.274       .  A
C241        C448   1.478       .  S
O242        C244   1.269       .  A
O243       Ni254   1.939       .  S
C244        O250   1.277       .  A
C244        C481   1.477       .  S
C245        C518   1.466       .  S
H246        O247   0.968       .  S
O247       Ni255   1.935       .  S
O247       Ni249   1.902   1_455  S
O247       Ni254   1.919   1_455  S
O248       Ni249   1.956       .  S
Ni249       O253   1.871       .  S
Ni249       O251   1.897       .  S
O250       Ni255   1.950       .  S
C252        O253   1.261       .  A
C252        C771   1.469       .  S
O257       Ni263   1.907       .  S
O257        C278   1.268   1_565  A
O258       Ni281   1.881       .  S
O258        C267   1.261       .  A
O259       Ni263   1.895       .  S
O259       Ni281   1.865       .  S
O259       Ni275   1.899   1_565  S
O259        H282   0.966       .  S
C260        O277   1.267       .  A
C260        O269   1.267       .  A
C260        C428   1.467       .  S
O261       Ni280   1.909   1_565  S
O261        C267   1.268       .  A
O262       Ni280   1.889   1_565  S
O262        C264   1.271   1_565  A
Ni263       O266   1.934       .  S
Ni263       O268   1.924       .  S
C264        O274   1.290       .  A
C264        C438   1.476       .  S
O265       Ni281   1.923       .  S
O265        C271   1.282       .  A
O266        C271   1.283       .  A
C267        C531   1.461       .  S
O268        C270   1.268       .  A
O269       Ni280   1.922       .  S
C270        O276   1.266       .  A
C270        C738   1.500   1_455  S
C271        C491   1.495       .  S
H272        O273   0.966       .  S
O273       Ni281   1.941       .  S
O273       Ni275   1.914   1_565  S
O273       Ni280   1.901   1_565  S
O274       Ni275   1.986       .  S
Ni275       O279   1.918       .  S
Ni275       O277   1.915       .  S
O276       Ni281   1.919       .  S
C278        O279   1.275       .  A
C278        C551   1.477       .  S
O283       Ni289   1.949   1_554  S
O283        C304   1.279       .  A
O284       Ni307   1.927       .  S
O284        C293   1.271       .  A
O285       Ni289   1.897   1_554  S
O285       Ni307   1.908   1_654  S
O285       Ni301   1.908       .  S
O285        H308   0.966       .  S
C286        O303   1.276       .  A
C286        O295   1.275       .  A
C286        C508   1.464       .  S
O287       Ni306   1.886       .  S
O287        C293   1.260   1_554  A
O288       Ni306   1.908       .  S
O288        C290   1.265       .  A
Ni289       O292   1.941       .  S
Ni289       O294   1.911       .  S
C290        O300   1.265       .  A
C290        C421   1.483       .  S
O291       Ni307   1.901   1_655  S
O291        C297   1.273       .  A
O292        C297   1.276       .  A
C293        C411   1.466       .  S
O294        C296   1.274       .  A
O295       Ni306   1.902       .  S
C296        O302   1.277       .  A
C296        C821   1.475       .  S
C297        C571   1.468       .  S
H298        O299   0.966   1_556  S
O299       Ni307   1.908   1_554  S
O299       Ni301   1.874   1_455  S
O299       Ni306   1.894       .  S
O300       Ni301   1.914   1_455  S
Ni301       O305   1.875       .  S
Ni301       O303   1.909   1_655  S
O302       Ni307   1.937   1_655  S
C304        O305   1.263       .  A
C304        C471   1.477       .  S
O309       Ni317   1.915       .  S
O309        C319   1.280       .  A
O310       Ni317   1.914       .  S
O310        C320   1.280       .  A
O311       Ni317   1.931       .  S
O311        C321   1.287       .  A
O312       Ni317   1.929       .  S
O312        C322   1.284       .  A
O313       Ni318   1.915       .  S
O313        C322   1.282   1_565  A
O314       Ni318   1.916       .  S
O314        C321   1.279   1_565  A
O315       Ni318   1.930       .  S
O315        C320   1.285   1_565  A
O316       Ni318   1.934       .  S
O316        C319   1.285   1_565  A
Ni317      Ni318   2.384   1_545  S
C319        C398   1.486       .  S
C320        C631   1.487       .  S
C321        C581   1.490       .  S
C322        C441   1.491       .  S
O323       Ni329   1.936       .  S
O323        C344   1.277       .  A
O324       Ni347   1.932       .  S
O324        C333   1.270       .  A
O325       Ni329   1.893   1_554  S
O325       Ni347   1.904       .  S
O325       Ni341   1.901   1_554  S
O325        H348   0.967   1_554  S
C326        O343   1.278       .  A
C326        O335   1.277   1_556  A
C326        C378   1.485       .  S
O327       Ni346   1.897       .  S
O327        C333   1.260       .  A
O328       Ni346   1.901       .  S
O328        C330   1.263   1_554  A
Ni329       O332   1.916   1_546  S
Ni329       O334   1.919   1_556  S
C330        O340   1.262       .  A
C330        C561   1.459   1_455  S
O331       Ni347   1.920       .  S
O331        C337   1.282   1_545  A
O332        C337   1.278       .  A
C333        C391   1.474       .  S
O334        C336   1.272       .  A
O335       Ni346   1.908       .  S
C336        O342   1.271       .  A
C336        C401   1.486       .  S
C337        C498   1.475       .  S
H338        O339   0.966       .  S
O339       Ni347   1.927       .  S
O339       Ni341   1.889   1_554  S
O339       Ni346   1.903       .  S
O340       Ni341   1.916       .  S
Ni341       O345   1.880       .  S
Ni341       O343   1.928       .  S
O342       Ni347   1.927       .  S
C344        O345   1.261       .  A
C344        C541   1.466       .  S
O349       Ni357   1.926       .  S
O349        C359   1.284       .  A
O350       Ni357   1.922       .  S
O350        C360   1.280       .  A
O351       Ni357   1.910       .  S
O351        C361   1.281       .  A
O352       Ni357   1.912       .  S
O352        C362   1.281       .  A
O353       Ni358   1.918       .  S
O353        C362   1.282       .  A
O354       Ni358   1.915       .  S
O354        C361   1.281       .  A
O355       Ni358   1.897       .  S
O355        C360   1.278       .  A
O356       Ni358   1.907       .  S
O356        C359   1.279       .  A
Ni357      Ni358   2.387       .  S
C359        C388   1.481       .  S
C360        C451   1.463       .  S
C361        C431   1.479       .  S
C362        C418   1.484       .  S
O363       Ni371   1.912       .  S
O363        C373   1.281       .  A
O364       Ni371   1.905       .  S
O364        C374   1.278       .  A
O365       Ni371   1.932       .  S
O365        C375   1.285       .  A
O366       Ni371   1.933       .  S
O366        C376   1.284       .  A
O367       Ni372   1.893       .  S
O367        C376   1.278       .  A
O368       Ni372   1.895       .  S
O368        C375   1.277       .  A
O369       Ni372   1.906       .  S
O369        C374   1.281       .  A
O370       Ni372   1.919   1_554  S
O370        C373   1.281   1_554  A
Ni371      Ni372   2.389       .  S
C373        C601   1.476       .  S
C374        C408   1.460       .  S
C375        C728   1.482       .  S
C376        C381   1.475       .  S
C377        C378   1.412       .  A
C377        C382   1.405       .  A
C377        H384   1.083       .  S
C378        C379   1.408   1_556  A
C379        C380   1.388   1_554  A
C379        F386   1.358       .  S
C380        C381   1.403       .  A
C380        H385   1.084   1_556  S
C381        C382   1.404       .  A
C382        F383   1.357       .  S
C387        C388   1.405       .  A
C387        C392   1.397       .  A
C387        H394   1.083   1_455  S
C388        C389   1.409       .  A
C389        C390   1.400       .  A
C389        F396   1.357       .  S
C390        C391   1.404       .  A
C390        H395   1.083       .  S
C391        C392   1.407       .  A
C392        F393   1.358   1_455  S
C397        C398   1.405       .  A
C397        C402   1.402       .  A
C397        H404   1.083   1_545  S
C398        C399   1.409       .  A
C399        C400   1.402       .  A
C399        F406   1.358       .  S
C400        C401   1.406       .  A
C400        H405   1.084       .  S
C401        C402   1.409       .  A
C402        F403   1.357   1_545  S
C407        C408   1.407       .  A
C407        C412   1.397       .  A
C407        H414   1.084       .  S
C408        C409   1.398       .  A
C409        C410   1.390       .  A
C409        F416   1.358       .  S
C410        C411   1.408       .  A
C410        H415   1.084   1_556  S
C411        C412   1.400       .  A
C412        F413   1.357       .  S
C417        C418   1.406       .  A
C417        C422   1.396       .  A
C417        H424   1.083       .  S
C418        C419   1.409       .  A
C419        C420   1.398       .  A
C419        F426   1.357   1_455  S
C420        C421   1.406       .  A
C420        H425   1.083   1_455  S
C421        C422   1.409       .  A
C422        F423   1.358       .  S
C427        C428   1.401       .  A
C427        C432   1.401       .  A
C427        H434   1.083       .  S
C428        C429   1.404       .  A
C429        C430   1.391       .  A
C429        F436   1.357       .  S
C430        C431   1.404       .  A
C430        H435   1.083       .  S
C431        C432   1.411       .  A
C432        F433   1.357       .  S
C437        C438   1.404       .  A
C437        C442   1.405       .  A
C437        H444   1.082       .  S
C438        C439   1.405   1_545  A
C439        C440   1.397       .  A
C439        F446   1.358       .  S
C440        C441   1.407   1_565  A
C440        H445   1.083       .  S
C441        C442   1.412       .  A
C442        F443   1.357       .  S
C447        C448   1.406       .  A
C447        C452   1.385       .  A
C447        H454   1.083       .  S
C448        C449   1.411       .  A
C449        C450   1.402       .  A
C449        F456   1.358       .  S
C450        C451   1.404       .  A
C450        H455   1.083       .  S
C451        C452   1.399       .  A
C452        F453   1.358       .  S
C457        C458   1.406       .  A
C457        C462   1.399       .  A
C457        H464   1.083       .  S
C458        C459   1.412       .  A
C459        C460   1.404       .  A
C459        F466   1.358       .  S
C460        C461   1.407       .  A
C460        H465   1.083       .  S
C461        C462   1.408       .  A
C462        F463   1.357       .  S
C467        C468   1.403       .  A
C467        C472   1.396       .  A
C467        H474   1.084       .  S
C468        C469   1.401       .  A
C469        C470   1.398       .  A
C469        F476   1.358       .  S
C470        C471   1.410       .  A
C470        H475   1.084       .  S
C471        C472   1.405       .  A
C472        F473   1.357       .  S
C477        C478   1.403       .  A
C477        C482   1.399       .  A
C477        H484   1.083       .  S
C478        C479   1.408       .  A
C479        C480   1.397       .  A
C479        F486   1.358       .  S
C480        C481   1.404       .  A
C480        H485   1.084       .  S
C481        C482   1.408       .  A
C482        F483   1.357       .  S
C487        C488   1.407       .  A
C487        C492   1.404       .  A
C487        H494   1.083       .  S
C488        C489   1.410       .  A
C489        C490   1.399       .  A
C489        F496   1.357       .  S
C490        C491   1.408       .  A
C490        H495   1.083       .  S
C491        C492   1.413       .  A
C492        F493   1.357       .  S
C497        C498   1.402       .  A
C497        C502   1.398       .  A
C497        H504   1.083       .  S
C498        C499   1.414       .  A
C499        C500   1.392       .  A
C499        F506   1.358       .  S
C500        C501   1.395       .  A
C500        H505   1.084       .  S
C501        C502   1.405       .  A
C502        F503   1.357       .  S
C507        C508   1.400       .  A
C507        C512   1.390       .  A
C507        H514   1.083       .  S
C508        C509   1.407       .  A
C509        C510   1.389       .  A
C509        F516   1.358   1_455  S
C510        C511   1.402       .  A
C510        H515   1.083   1_455  S
C511        C512   1.410       .  A
C512        F513   1.358       .  S
C517        C518   1.402       .  A
C517        C522   1.399       .  A
C517        H524   1.084   1_455  S
C518        C519   1.403       .  A
C519        C520   1.395       .  A
C519        F526   1.357       .  S
C520        C521   1.405       .  A
C520        H525   1.083       .  S
C521        C522   1.411       .  A
C522        F523   1.358   1_455  S
C527        C528   1.399       .  A
C527        C532   1.385       .  A
C527        H534   1.084       .  S
C528        C529   1.399       .  A
C529        C530   1.395       .  A
C529        F536   1.357       .  S
C530        C531   1.407       .  A
C530        H535   1.084       .  S
C531        C532   1.405       .  A
C532        F533   1.358       .  S
C537        C538   1.407       .  A
C537        C542   1.389       .  A
C537        H544   1.083   1_545  S
C538        C539   1.407       .  A
C539        C540   1.398       .  A
C539        F546   1.358       .  S
C540        C541   1.405       .  A
C540        H545   1.084       .  S
C541        C542   1.400       .  A
C542        F543   1.358   1_545  S
C547        C548   1.398       .  A
C547        C552   1.390       .  A
C547        H554   1.084       .  S
C548        C549   1.406       .  A
C549        C550   1.399       .  A
C549        F556   1.357       .  S
C550        C551   1.404       .  A
C550        H555   1.083       .  S
C551        C552   1.413       .  A
C552        F553   1.358   1_545  S
C557        C558   1.401       .  A
C557        C562   1.396       .  A
C557        H564   1.083   1_556  S
C558        C559   1.409       .  A
C559        C560   1.396       .  A
C559        F566   1.358       .  S
C560        C561   1.397       .  A
C560        H565   1.083       .  S
C561        C562   1.405       .  A
C562        F563   1.358   1_556  S
C567        C568   1.403       .  A
C567        C572   1.391       .  A
C567        H574   1.084       .  S
C568        C569   1.405       .  A
C569        C570   1.398       .  A
C569        F576   1.358       .  S
C570        C571   1.406       .  A
C570        H575   1.083       .  S
C571        C572   1.404       .  A
C572        F573   1.358   1_556  S
C577        C578   1.408   1_565  A
C577        C582   1.409       .  A
C577        H584   1.083       .  S
C578        C579   1.416       .  A
C579        C580   1.394       .  A
C579        F586   1.358       .  S
C580        C581   1.400       .  A
C580        H585   1.083       .  S
C581        C582   1.414   1_545  A
C582        F583   1.357       .  S
C587        C588   1.407       .  A
C587        C592   1.395       .  A
C587        H594   1.083       .  S
C588        C589   1.411       .  A
C589        C590   1.399       .  A
C589        F596   1.357   1_545  S
C590        C591   1.405       .  A
C590        H595   1.083   1_545  S
C591        C592   1.409       .  A
C592        F593   1.358       .  S
C597        C598   1.404   1_554  A
C597        C602   1.400       .  A
C597        H604   1.084       .  S
C598        C599   1.403       .  A
C599        C600   1.396       .  A
C599        F606   1.357       .  S
C600        C601   1.404       .  A
C600        H605   1.083       .  S
C601        C602   1.408   1_556  A
C602        F603   1.358       .  S
C607        C608   1.406   1_554  A
C607        C612   1.395       .  A
C607        H614   1.083       .  S
C608        C609   1.407       .  A
C609        C610   1.396       .  A
C609        F616   1.358       .  S
C610        C611   1.404       .  A
C610        H615   1.084       .  S
C611        C612   1.403   1_556  A
C612        F613   1.357       .  S
C617        C618   1.408       .  A
C617        C622   1.402       .  A
C617        H624   1.083       .  S
C618        C619   1.409       .  A
C619        C620   1.395       .  A
C619        F626   1.357       .  S
C620        C621   1.401       .  A
C620        H625   1.084       .  S
C621        C622   1.404       .  A
C622        F623   1.358       .  S
C627        C628   1.407   1_565  A
C627        C632   1.402       .  A
C627        H634   1.084       .  S
C628        C629   1.404       .  A
C629        C630   1.401       .  A
C629        F636   1.358       .  S
C630        C631   1.409       .  A
C630        H635   1.083       .  S
C631        C632   1.407   1_545  A
C632        F633   1.357       .  S
C637        C638   1.401       .  A
C637        C642   1.400       .  A
C637        H644   1.084       .  S
C638        C639   1.407       .  A
C639        C640   1.399       .  A
C639        F646   1.358       .  S
C640        C641   1.405       .  A
C640        H645   1.083       .  S
C641        C642   1.411       .  A
C642        F643   1.357       .  S
C647        C648   1.407       .  A
C647        C652   1.397       .  A
C647        H654   1.083       .  S
C648        C649   1.407       .  A
C649        C650   1.396       .  A
C649        F656   1.358   1_545  S
C650        C651   1.403       .  A
C650        H655   1.084   1_545  S
C651        C652   1.402       .  A
C652        F653   1.357       .  S
C657        C658   1.408       .  A
C657        C662   1.399       .  A
C657        H664   1.083       .  S
C658        C659   1.409       .  A
C659        C660   1.400       .  A
C659        F666   1.357       .  S
C660        C661   1.407       .  A
C660        H665   1.083       .  S
C661        C662   1.408       .  A
C662        F663   1.357       .  S
C667        C668   1.397       .  A
C667        C672   1.401       .  A
C667        H674   1.083       .  S
C668        C669   1.407       .  A
C669        C670   1.397       .  A
C669        F676   1.358       .  S
C670        C671   1.403       .  A
C670        H675   1.083       .  S
C671        C672   1.413       .  A
C672        F673   1.357       .  S
C677        C678   1.406       .  A
C677        C682   1.398       .  A
C677        H684   1.083       .  S
C678        C679   1.408       .  A
C679        C680   1.403       .  A
C679        F686   1.356       .  S
C680        C681   1.408       .  A
C680        H685   1.083       .  S
C681        C682   1.410       .  A
C682        F683   1.358       .  S
C687        C688   1.412       .  A
C687        C692   1.390       .  A
C687        H694   1.083       .  S
C688        C689   1.409       .  A
C689        C690   1.409       .  A
C689        F696   1.357       .  S
C690        C691   1.410       .  A
C690        H695   1.083       .  S
C691        C692   1.400       .  A
C692        F693   1.358       .  S
C697        C698   1.405       .  A
C697        C702   1.401       .  A
C697        H704   1.083   1_556  S
C698        C699   1.410       .  A
C699        C700   1.400       .  A
C699        F706   1.358       .  S
C700        C701   1.404       .  A
C700        H705   1.083       .  S
C701        C702   1.409       .  A
C702        F703   1.358   1_556  S
C707        C708   1.409       .  A
C707        C712   1.401       .  A
C707        H714   1.083       .  S
C708        C709   1.411       .  A
C709        C710   1.397       .  A
C709        F716   1.357       .  S
C710        C711   1.401       .  A
C710        H715   1.084       .  S
C711        C712   1.403       .  A
C712        F713   1.358       .  S
C717        C718   1.406       .  A
C717        C722   1.401       .  A
C717        H724   1.083       .  S
C718        C719   1.411       .  A
C719        C720   1.401       .  A
C719        F726   1.358       .  S
C720        C721   1.408       .  A
C720        H725   1.083       .  S
C721        C722   1.410       .  A
C722        F723   1.357       .  S
C727        C728   1.409   1_554  A
C727        C732   1.393       .  A
C727        H734   1.083       .  S
C728        C729   1.408       .  A
C729        C730   1.400       .  A
C729        F736   1.357       .  S
C730        C731   1.405       .  A
C730        H735   1.084       .  S
C731        C732   1.399   1_556  A
C732        F733   1.358       .  S
C737        C738   1.407       .  A
C737        C742   1.406       .  A
C737        H744   1.083       .  S
C738        C739   1.414       .  A
C739        C740   1.403       .  A
C739        F746   1.357       .  S
C740        C741   1.405       .  A
C740        H745   1.083       .  S
C741        C742   1.416       .  A
C742        F743   1.358       .  S
C747        C748   1.404       .  A
C747        C752   1.405       .  A
C747        H754   1.083       .  S
C748        C749   1.419       .  A
C749        C750   1.395       .  A
C749        F756   1.358   1_565  S
C750        C751   1.393       .  A
C750        H755   1.084       .  S
C751        C752   1.410       .  A
C752        F753   1.358       .  S
C757        C758   1.407       .  A
C757        C762   1.394       .  A
C757        H764   1.083       .  S
C758        C759   1.415       .  A
C759        C760   1.406       .  A
C759        F766   1.356       .  S
C760        C761   1.403       .  A
C760        H765   1.083       .  S
C761        C762   1.405       .  A
C762        F763   1.358       .  S
C767        C768   1.401       .  A
C767        C772   1.391       .  A
C767        H774   1.084       .  S
C768        C769   1.398       .  A
C769        C770   1.394       .  A
C769        F776   1.357       .  S
C770        C771   1.409       .  A
C770        H775   1.083       .  S
C771        C772   1.406       .  A
C772        F773   1.358       .  S
C777        C778   1.409       .  A
C777        C782   1.404       .  A
C777        H784   1.083       .  S
C778        C779   1.412       .  A
C779        C780   1.398       .  A
C779        F786   1.357       .  S
C780        C781   1.400       .  A
C780        H785   1.084       .  S
C781        C782   1.407       .  A
C782        F783   1.358       .  S
C787        C788   1.408       .  A
C787        C792   1.406       .  A
C787        H794   1.083       .  S
C788        C789   1.401       .  A
C789        C790   1.400       .  A
C789        F796   1.358       .  S
C790        C791   1.413       .  A
C790        H795   1.083       .  S
C791        C792   1.409       .  A
C792        F793   1.357       .  S
C797        C798   1.409       .  A
C797        C802   1.406       .  A
C797        H804   1.083       .  S
C798        C799   1.410       .  A
C799        C800   1.404       .  A
C799        F806   1.357       .  S
C800        C801   1.411       .  A
C800        H805   1.083       .  S
C801        C802   1.411       .  A
C802        F803   1.357       .  S
C807        C808   1.408       .  A
C807        C812   1.401       .  A
C807        H814   1.083       .  S
C808        C809   1.408       .  A
C809        C810   1.398       .  A
C809        F816   1.358       .  S
C810        C811   1.405       .  A
C810        H815   1.084       .  S
C811        C812   1.405       .  A
C812        F813   1.357       .  S
C817        C818   1.405       .  A
C817        C822   1.396       .  A
C817        H824   1.084       .  S
C818        C819   1.402       .  A
C819        C820   1.394       .  A
C819        F826   1.358       .  S
C820        C821   1.406       .  A
C820        H825   1.083       .  S
C821        C822   1.406       .  A
C822        F823   1.358       .  S
C827        C828   1.403       .  A
C827        C832   1.396       .  A
C827        H834   1.083       .  S
C828        C829   1.412       .  A
C829        C830   1.402       .  A
C829        F836   1.358       .  S
C830        C831   1.406       .  A
C830        H835   1.083       .  S
C831        C832   1.412       .  A
C832        F833   1.357       .  S
C837        C838   1.409       .  A
C837        C842   1.402       .  A
C837        H844   1.083       .  S
C838        C839   1.408       .  A
C839        C840   1.400       .  A
C839        F846   1.357       .  S
C840        C841   1.410       .  A
C840        H845   1.083       .  S
C841        C842   1.410       .  A
C842        F843   1.357       .  S
C847        C848   1.405       .  A
C847        C852   1.395       .  A
C847        H854   1.083       .  S
C848        C849   1.408       .  A
C849        C850   1.396       .  A
C849        F856   1.357       .  S
C850        C851   1.402       .  A
C850        H855   1.083       .  S
C851        C852   1.406       .  A
C852        F853   1.357       .  S
