geometry optimzed in LAMMPS
_audit_creation_date              2020-11-30 
_audit_creation_method            'lammps2cif' 
_symmetry_space_group_name_H-M    'P1' 
_symmetry_Int_Tables_number       1 
_symmetry_cell_setting            triclinic 
loop_ 
_symmetry_equiv_pos_as_xyz 
  x,y,z 
_cell_length_a                    55.65244493 
_cell_length_b                    47.32905309869919 
_cell_length_c                    27.30947737265729 
_cell_angle_alpha                 89.97549017620545 
_cell_angle_beta                  90.00196368205916 
_cell_angle_gamma                 122.80655778968587 
loop_ 
_atom_site_label 
_atom_site_type_symbol 
_atom_site_fract_x 
_atom_site_fract_y 
_atom_site_fract_z 
_atom_site_charge 
C1          C  0.36959218  0.16029611  0.28877925     0.80900
N2          N  0.37465432  0.15769442  0.33654947    -0.77400
C3          C  0.39693018  0.15515716  0.34952138     0.83400
N4          N  0.41410215  0.15479266  0.31437712    -0.77300
C5          C  0.40911206  0.15764545  0.26640038     0.83500
N6          N  0.38673555  0.16012128  0.25373255    -0.79000
C7          C  0.18778089  0.59014433  0.72787300     0.80900
N8          N  0.17730635  0.56699869  0.76423303    -0.77400
C9          C  0.16082602  0.53378643  0.75352594     0.83400
N10         N  0.15432413  0.52364523  0.70621479    -0.77300
C11         C  0.16494307  0.54682845  0.66965473     0.83500
N12         N  0.18140827  0.58009836  0.68054653    -0.79000
C13         C  0.44158288  0.97703187  0.23018678     0.80900
N14         N  0.45037930  0.99890489  0.26801657    -0.77400
C15         C  0.46670554  0.03244105  0.25968333     0.83400
N16         N  0.47481460  0.04418599  0.21326693    -0.77300
C17         C  0.46584920  0.02216607  0.17525496     0.83500
N18         N  0.44951659  0.98861128  0.18384637    -0.79000
C19         C  0.24266609  0.39525389  0.78760715     0.80900
N20         N  0.22746516  0.39837757  0.75174264    -0.77400
C21         C  0.20603142  0.40283301  0.76329892     0.83400
N22         N  0.20008511  0.40476082  0.81103971    -0.77300
C23         C  0.21529925  0.40137967  0.84695281     0.83500
N24         N  0.23667143  0.39692085  0.83511560    -0.79000
C25         C  0.66512036  0.31414177  0.22898890     0.80900
N26         N  0.65240060  0.31190909  0.18560431    -0.77400
C27         C  0.62585244  0.30641297  0.18472955     0.83400
N28         N  0.61198915  0.30319261  0.22730480    -0.77300
C29         C  0.62477402  0.30541316  0.27073268     0.83500
N30         N  0.65133334  0.31087878  0.27157312    -0.79000
C31         C  0.97110787  0.28226101  0.72371280     0.80900
N32         N  0.98498928  0.28629002  0.68099409    -0.77400
C33         C  0.01257066  0.29514910  0.68152771     0.83400
N34         N  0.02624063  0.29976875  0.72471882    -0.77300
C35         C  0.01231294  0.29578614  0.76743168     0.83500
N36         N  0.98469900  0.28687929  0.76697397    -0.79000
Zr37       Zr  0.70974799  0.24590800  0.72124807     2.17500
O38         O  0.73683705  0.30700955  0.72744455    -0.50600
O39         O  0.74748368  0.23509927  0.71845515    -0.73800
O40         O  0.73439676  0.26023445  0.79997761    -0.80600
O41         O  0.70331496  0.23987892  0.58275157    -0.82300
O42         O  0.70249101  0.22283127  0.85562121    -0.78000
O43         O  0.73483729  0.26964755  0.64417315    -0.89600
O44         O  0.72715933  0.17844011  0.71495167    -0.75600
O45         O  0.69234337  0.19596554  0.76758450    -0.85100
O46         O  0.69277630  0.20061311  0.66472069    -0.84800
O47         O  0.67280433  0.24188787  0.77256044    -0.71500
O48         O  0.67282020  0.24602361  0.67542318    -0.83600
Zr49       Zr  0.60165646  0.14414881  0.71540067     2.26400
Zr50       Zr  0.65542210  0.19106517  0.81787277     2.06300
Zr51       Zr  0.65635599  0.20053985  0.61878114     2.10000
Zr52       Zr  0.67560637  0.15106674  0.71125885     1.78800
O53         O  0.65184033  0.23908724  0.56641134    -0.92400
O54         O  0.68342825  0.12323282  0.77862234    -0.40300
O55         O  0.63861304  0.14917384  0.66350954    -0.76900
O56         O  0.63814740  0.14448885  0.76271128    -0.95600
O57         O  0.61780118  0.18872622  0.77260141    -0.88900
O58         O  0.61850447  0.19415835  0.66905557    -0.91700
C59         C  0.74870364  0.20886205  0.71685358     1.02000
C60         C  0.72836084  0.26210770  0.59883510     1.15000
C61         C  0.72763785  0.24674035  0.84273169     1.05700
O62         O  0.66029590  0.16025182  0.88436484    -0.93900
O63         O  0.61029469  0.14798563  0.85386276    -0.89600
O64         O  0.57815090  0.11870332  0.79300680    -0.82800
C65         C  0.58552055  0.12492055  0.83824171     1.12400
O66         O  0.66167478  0.29957686  0.72915964    -0.95900
Zr67       Zr  0.63423505  0.23832957  0.72647123     1.88900
O68         O  0.56374759  0.15366523  0.72608829    -0.72500
O69         O  0.64926570  0.22561028  0.87602855    -0.51800
O70         O  0.62665276  0.25841834  0.80341118    -0.96400
O71         O  0.62083330  0.26207950  0.66068553    -0.53700
O72         O  0.58187631  0.20952414  0.73427524    -0.73000
C73         C  0.56097438  0.17846713  0.73341257     0.99300
O74         O  0.57331458  0.08297069  0.70951273    -0.61800
O75         O  0.66162465  0.17190463  0.54948740    -0.56600
O76         O  0.57825875  0.12733164  0.63560131    -0.93300
O77         O  0.61099687  0.16215988  0.57855842    -0.91700
O78         O  0.68842358  0.13313804  0.63756706    -0.92100
O79         O  0.64697425  0.09007907  0.70394994    -0.90900
C80         C  0.58593304  0.13807409  0.59154637     1.18200
H81         H  0.70781917  0.20320991  0.64366116     0.34100
H82         H  0.63011218  0.12386310  0.78090949     0.45000
H83         H  0.60338702  0.19261448  0.64945790     0.38500
H84         H  0.68095584  0.26088625  0.79453742     0.35000
H85         H  0.69643671  0.11697488  0.76516552     0.26800
H86         H  0.62878022  0.21752610  0.87367969     0.32700
H87         H  0.61150956  0.26279035  0.79629902     0.38600
H88         H  0.67071405  0.12138050  0.61771999     0.33100
H89         H  0.66413375  0.18606244  0.52077270     0.31900
H90         H  0.63795833  0.22472564  0.54078875     0.33600
H91         H  0.60399112  0.24272942  0.64462156     0.32600
H92         H  0.62717526  0.08368748  0.71081610     0.36600
H93         H  0.58000324  0.07785471  0.67920471     0.29300
H94         H  0.75686421  0.31373188  0.73315085     0.33600
H95         H  0.64738582  0.30577992  0.73275021     0.36400
H96         H  0.68053269  0.17494690  0.55410080     0.29000
H97         H  0.58042495  0.07521310  0.73622085     0.41900
H98         H  0.65725325  0.13968103  0.86877019     0.31900
H99         H  0.69531134  0.14143604  0.80231160     0.39600
H100        H  0.63638680  0.27023625  0.63629110     0.31400
H101        H  0.65115838  0.21768234  0.90854016     0.31500
H102        H  0.73074454  0.31163937  0.75881711     0.31700
Zr103      Zr  0.92043677  0.32896219  0.22413310     2.17500
O104        O  0.89174096  0.26810654  0.23432686    -0.50600
O105        O  0.88280597  0.34005981  0.22022262    -0.73800
O106        O  0.89728063  0.31741380  0.30381905    -0.80600
O107        O  0.92441863  0.33279946  0.08527753    -0.82300
O108        O  0.93018790  0.35555121  0.35758020    -0.78000
O109        O  0.89398966  0.30423711  0.14850033    -0.89600
O110        O  0.90347716  0.39676499  0.21699898    -0.75600
O111        O  0.93908237  0.37954084  0.26927513    -0.85100
O112        O  0.93663593  0.37349304  0.16667033    -0.84800
O113        O  0.95820759  0.33326258  0.27364245    -0.71500
O114        O  0.95632920  0.32744630  0.17690736    -0.83600
Zr115      Zr  0.02851316  0.42952203  0.21115114     2.26400
Zr116      Zr  0.97683520  0.38492433  0.31759103     2.06300
Zr117      Zr  0.97177277  0.37211301  0.11903409     2.10000
Zr118      Zr  0.95496089  0.42373209  0.21208794     1.78800
O119        O  0.97610599  0.33418966  0.06498409    -0.92400
O120        O  0.94666259  0.45022893  0.28082487    -0.40300
O121        O  0.99055514  0.42408940  0.16212547    -0.76900
O122        O  0.99343103  0.43059635  0.26091299    -0.95600
O123        O  0.01338709  0.38611271  0.27029236    -0.88900
O124        O  0.01048389  0.37861204  0.16672962    -0.91700
C125        C  0.88178136  0.36644551  0.21892214     1.02000
C126        C  0.89962829  0.31121704  0.10283999     1.15000
C127        C  0.90470555  0.33177109  0.34588107     1.05700
O128        O  0.97580819  0.42033193  0.38104936    -0.93900
O129        O  0.02373612  0.42702471  0.34953289    -0.89600
O130        O  0.05384514  0.45667002  0.28633708    -0.82800
C131        C  0.04793303  0.45030664  0.33199743     1.12400
O132        O  0.96875935  0.27441141  0.22551753    -0.95900
Zr133      Zr  0.99589775  0.33571371  0.22606732     1.88900
O134        O  0.06702588  0.42110925  0.22175903    -0.72500
O135        O  0.98081579  0.35018030  0.37868225    -0.51800
O136        O  0.00187607  0.31552091  0.30438420    -0.96400
O137        O  0.01141258  0.31228339  0.16322761    -0.53700
O138        O  0.04849914  0.36546023  0.23405484    -0.73000
C139        C  0.06961092  0.39640645  0.23119378     0.99300
O140        O  0.05596235  0.49014378  0.19833579    -0.61800
O141        O  0.96497561  0.40127287  0.05230924    -0.56600
O142        O  0.05031195  0.44441614  0.13000973    -0.93300
O143        O  0.01564233  0.40998834  0.07535831    -0.91700
O144        O  0.94145810  0.44213822  0.13977807    -0.92100
O145        O  0.98474816  0.48470093  0.20387303    -0.90900
C146        C  0.04119521  0.43358312  0.08648615     1.18200
H147        H  0.92134107  0.37079359  0.14624715     0.34100
H148        H  0.00215012  0.45153341  0.27853690     0.45000
H149        H  0.02504413  0.37958157  0.14620177     0.38500
H150        H  0.95029563  0.31461409  0.29618840     0.35000
H151        H  0.93289736  0.45562268  0.26835856     0.26800
H152        H  0.00154534  0.35956084  0.38111636     0.32700
H153        H  0.01930040  0.31496558  0.30047314     0.38600
H154        H  0.93456245  0.45607082  0.15266236     0.33100
H155        H  0.95979992  0.38621024  0.02367431     0.31900
H156        H  0.99670482  0.34251471  0.06537944     0.33600
H157        H  0.02942013  0.33156451  0.14979628     0.32600
H158        H  0.99712059  0.49269456  0.23328388     0.36600
H159        H  0.04635682  0.49357495  0.17057457     0.29300
H160        H  0.87235653  0.26271548  0.24284836     0.33600
H161        H  0.98240373  0.26822265  0.23574843     0.36400
H162        H  0.94720462  0.40022752  0.06069221     0.29000
H163        H  0.05147646  0.49935268  0.22691673     0.41900
H164        H  0.97542409  0.43821101  0.36295402     0.31900
H165        H  0.93554343  0.43182319  0.30467011     0.39600
H166        H  0.99737354  0.30555259  0.13639353     0.31400
H167        H  0.97591610  0.35643540  0.41004037     0.31500
H168        H  0.89891580  0.26388446  0.26477443     0.31700
Zr169      Zr  0.38278023  0.91301957  0.79849075     2.17500
O170        O  0.41184540  0.89000067  0.78137294    -0.50600
O171        O  0.33661994  0.86192166  0.81003264    -0.73800
O172        O  0.38396575  0.88589155  0.87336416    -0.80600
O173        O  0.36244654  0.91828929  0.66730122    -0.82300
O174        O  0.39396365  0.92213616  0.93646497    -0.78000
O175        O  0.36946635  0.88548739  0.71885494    -0.89600
O176        O  0.30518824  0.87571007  0.83509937    -0.75600
O177        O  0.36460912  0.92705299  0.86642116    -0.85100
O178        O  0.34810566  0.92316483  0.76761291    -0.84800
O179        O  0.42394177  0.96121133  0.83521764    -0.71500
O180        O  0.40808033  0.95846867  0.74134640    -0.83600
Zr181      Zr  0.39488051  0.03139992  0.81561163     2.26400
Zr182      Zr  0.40477464  0.97531757  0.90246633     2.06300
Zr183      Zr  0.37283636  0.96846893  0.71163348     2.10000
Zr184      Zr  0.33005076  0.93696248  0.83588208     1.78800
O185        O  0.39644028  0.98475562  0.63221708    -0.92400
O186        O  0.31121254  0.92074155  0.91872132    -0.40300
O187        O  0.35405128  0.98291308  0.77915970    -0.76900
O188        O  0.36974607  0.98609867  0.87342298    -0.95600
O189        O  0.42957333  0.02146458  0.84709291    -0.88900
O190        O  0.41297415  0.01725156  0.74729006    -0.91700
C191        C  0.31182207  0.85445002  0.82357504     1.02000
C192        C  0.36227879  0.89166109  0.67743678     1.15000
C193        C  0.38690380  0.89344516  0.91904401     1.05700
O194        O  0.38459203  0.96509858  0.98449787    -0.93900
O195        O  0.41814025  0.02675100  0.94481505    -0.89600
O196        O  0.41293720  0.06089682  0.89305032    -0.82800
C197        C  0.41969175  0.05408612  0.93433630     1.12400
O198        O  0.47592144  0.98379497  0.76082097    -0.95900
Zr199      Zr  0.44768193  0.00774623  0.77893049     1.88900
O200        O  0.43889714  0.08261197  0.79229172    -0.72500
O201        O  0.45115770  0.99111174  0.93537404    -0.51800
O202        O  0.48899091  0.03127725  0.83305581    -0.96400
O203        O  0.46768146  0.02020024  0.69652353    -0.53700
O204        O  0.47090871  0.06876347  0.77188917    -0.73000
C205        C  0.46355367  0.09008563  0.77758211     0.99300
O206        O  0.36740514  0.05484379  0.84248107    -0.61800
O207        O  0.32512316  0.94447377  0.67778836    -0.56600
O208        O  0.38361938  0.05368343  0.74501071    -0.93300
O209        O  0.37221375  0.01657207  0.68243417    -0.91700
O210        O  0.28776679  0.91699902  0.78531855    -0.92100
O211        O  0.30286237  0.96177949  0.85704093    -0.90900
C212        C  0.37675268  0.04411865  0.70037612     1.18200
H213        H  0.33273009  0.90384275  0.75090923     0.34100
H214        H  0.36293614  0.99306761  0.90019783     0.45000
H215        H  0.42160081  0.03504805  0.72350290     0.38500
H216        H  0.43696544  0.95543009  0.84679362     0.35000
H217        H  0.29043371  0.90440666  0.91425684     0.26800
H218        H  0.46412687  0.01504916  0.92623960     0.32700
H219        H  0.50574153  0.04473436  0.81139881     0.38600
H220        H  0.27150396  0.90151894  0.80680415     0.33100
H221        H  0.31766315  0.95695737  0.69390988     0.31900
H222        H  0.41112591  0.97908914  0.63403591     0.33600
H223        H  0.48821357  0.03751169  0.70104371     0.32600
H224        H  0.31588099  0.98596691  0.84949185     0.36600
H225        H  0.35067338  0.04492646  0.82034735     0.29300
H226        H  0.39921506  0.86571921  0.78872916     0.33600
H227        H  0.46222130  0.96185878  0.74533221     0.36400
H228        H  0.32838464  0.95223291  0.64336911     0.29000
H229        H  0.35928179  0.04411751  0.87458032     0.41900
H230        H  0.36556966  0.96173780  0.97985313     0.31900
H231        H  0.31852609  0.90704550  0.93078426     0.39600
H232        H  0.45981984  0.03230644  0.68051311     0.31400
H233        H  0.44897424  0.99153518  0.97130704     0.31500
H234        H  0.42644979  0.89898404  0.80762725     0.31700
Zr235      Zr  0.25962701  0.66079220  0.29237983     2.19900
O236        O  0.23507357  0.68971487  0.27709997    -0.50600
O237        O  0.30796262  0.70863776  0.29995247    -0.73800
O238        O  0.26219085  0.69021403  0.36781337    -0.80600
O239        O  0.27743964  0.65278458  0.16074008    -0.82300
O240        O  0.25226507  0.65428664  0.43131708    -0.78000
O241        O  0.27368050  0.68793838  0.21268615    -0.89600
O242        O  0.33726054  0.69077727  0.32066866    -0.75600
O243        O  0.27793493  0.64497993  0.35799525    -0.85100
O244        O  0.28988860  0.64498469  0.25716075    -0.84800
O245        O  0.21773399  0.61530680  0.33193862    -0.71500
O246        O  0.22955844  0.61524452  0.23737474    -0.83600
Zr247      Zr  0.23863180  0.53820601  0.30869566     2.26400
Zr248      Zr  0.23687189  0.59935221  0.39699338     2.06300
Zr249      Zr  0.26046158  0.59973678  0.20297611     2.10000
Zr250      Zr  0.30821356  0.62957975  0.32292670     1.78800
O251        O  0.23129881  0.58742099  0.12991292    -0.92400
O252        O  0.32938578  0.64450148  0.40435196    -0.40300
O253        O  0.27969800  0.58369639  0.26792112    -0.76900
O254        O  0.26797745  0.58344587  0.36426742    -0.95600
O255        O  0.20786385  0.55302793  0.34385686    -0.88900
O256        O  0.22006692  0.55369604  0.24253636    -0.91700
C257        C  0.33237240  0.71370494  0.31068830     1.02000
C258        C  0.28015696  0.68082437  0.17136232     1.15000
C259        C  0.26016624  0.68327274  0.41374317     1.05700
O260        O  0.25733161  0.60462304  0.47783131    -0.93900
O261        O  0.21993563  0.54676926  0.43887916    -0.89600
O262        O  0.22211726  0.51024190  0.38756756    -0.82800
C263        C  0.21647921  0.51835996  0.42885392     1.12400
O264        O  0.16180727  0.59350758  0.26402636    -0.95900
Zr265      Zr  0.18931792  0.56811050  0.27800414     1.88900
O266        O  0.19224759  0.48920601  0.29050845    -0.72500
O267        O  0.19247986  0.58858010  0.43245449    -0.51800
O268        O  0.15089967  0.54747724  0.33786935    -0.96400
O269        O  0.16706653  0.55889697  0.19776824    -0.53700
O270        O  0.16264075  0.50648201  0.26932319    -0.73000
C271        C  0.16821539  0.48358927  0.27560021     0.99300
O272        O  0.26477056  0.51176986  0.32840873    -0.61800
O273        O  0.30150862  0.61016697  0.15534137    -0.56600
O274        O  0.24316042  0.51135701  0.23692729    -0.93300
O275        O  0.25431113  0.54771721  0.17335397    -0.91700
O276        O  0.34822935  0.64668519  0.26772411    -0.92100
O277        O  0.33274125  0.60088998  0.34010331    -0.90900
C278        C  0.24826019  0.51958803  0.19162782     1.18200
H279        H  0.30572754  0.66322984  0.23939993     0.34100
H280        H  0.27465730  0.57561687  0.39019558     0.45000
H281        H  0.20949241  0.53565413  0.21941029     0.38500
H282        H  0.20631520  0.62317481  0.34500904     0.35000
H283        H  0.35025275  0.65881583  0.39843768     0.26800
H284        H  0.18005769  0.56378794  0.43511474     0.32700
H285        H  0.15037493  0.52853059  0.35445756     0.38600
H286        H  0.33973707  0.63132792  0.23936609     0.33100
H287        H  0.29578676  0.60931755  0.12075461     0.31900
H288        H  0.24366601  0.58904294  0.10254828     0.33600
H289        H  0.14876041  0.53692251  0.20027678     0.32600
H290        H  0.32815734  0.58560436  0.31194047     0.36600
H291        H  0.28079946  0.52143929  0.30471456     0.29300
H292        H  0.24733683  0.71219115  0.29213112     0.33600
H293        H  0.17633166  0.61793076  0.26200248     0.36400
H294        H  0.31640073  0.63410569  0.16113660     0.29000
H295        H  0.27409050  0.52167636  0.36020118     0.41900
H296        H  0.27604842  0.60751879  0.47142517     0.31900
H297        H  0.32432437  0.66014746  0.41735030     0.39600
H298        H  0.17893296  0.55474708  0.17556368     0.31400
H299        H  0.19745303  0.59639904  0.46675755     0.31500
H300        H  0.21783339  0.67805395  0.29814637     0.31700
C301        C  0.49465817  0.17972388  0.74677554     0.80900
N302        N  0.52269826  0.19080794  0.73866742    -0.77400
C303        C  0.53136434  0.16889096  0.74318365     0.83400
N304        N  0.51204280  0.13639213  0.75599675    -0.77300
C305        C  0.48444974  0.12551945  0.76504779     0.83500
N306        N  0.47588667  0.14724228  0.76013321    -0.79000
C307        C  0.13512085  0.39361423  0.24531491     0.80900
N308        N  0.15428735  0.42593911  0.25860162    -0.77400
C309        C  0.14640218  0.44837304  0.26304350     0.83400
N310        N  0.11896758  0.43829286  0.25359538    -0.77300
C311        C  0.09920353  0.40579553  0.24102464     0.83500
N312        N  0.10730215  0.38334051  0.23701160    -0.79000
Zr313      Zr  0.22754395  0.29683354  0.22837589     2.17500
O314        O  0.27911092  0.33685247  0.23022052    -0.50600
O315        O  0.22683168  0.24526571  0.22859425    -0.73800
O316        O  0.24625572  0.29535148  0.30835621    -0.80600
O317        O  0.22436429  0.30455788  0.08980147    -0.82300
O318        O  0.21247812  0.28346546  0.36606130    -0.78000
O319        O  0.25106349  0.30170312  0.15050010    -0.89600
O320        O  0.18106568  0.20036453  0.22122117    -0.75600
O321        O  0.18709448  0.25559347  0.27382201    -0.85100
O322        O  0.19101915  0.26334212  0.17042000    -0.84800
O323        O  0.21607045  0.32838614  0.28149718    -0.71500
O324        O  0.22020697  0.33587469  0.18535693    -0.83600
Zr325      Zr  0.12940592  0.29036022  0.22405861     2.26400
Zr326      Zr  0.17482208  0.28637232  0.32562852     2.06300
Zr327      Zr  0.18336460  0.30176834  0.12744198     2.10000
Zr328      Zr  0.15058785  0.22254481  0.21594556     1.78800
O329        O  0.20719838  0.35268823  0.07768613    -0.92400
O330        O  0.13018363  0.18072173  0.28109845    -0.40300
O331        O  0.14162137  0.25957161  0.17086990    -0.76900
O332        O  0.13713842  0.25213936  0.26878987    -0.95600
O333        O  0.16558604  0.32338732  0.28272652    -0.88900
O334        O  0.17016766  0.33191739  0.17920491    -0.91700
C335        C  0.20805351  0.21367362  0.22605902     1.02000
C336        C  0.24576022  0.30372046  0.10526429     1.15000
C337        C  0.23664821  0.28869369  0.35238138     1.05700
O338        O  0.14689892  0.23682043  0.37705262    -0.93900
O339        O  0.13633826  0.28882613  0.36191106    -0.89600
O340        O  0.10695931  0.28692677  0.30192422    -0.82800
C341        C  0.11417766  0.28804132  0.34683798     1.12400
O342        O  0.25602385  0.40847748  0.25083076    -0.95900
Zr343      Zr  0.20575573  0.36480859  0.23831996     1.88900
O344        O  0.12642817  0.33936891  0.23173522    -0.72500
O345        O  0.19629539  0.32481226  0.39456626    -0.51800
O346        O  0.21498801  0.39392617  0.31632881    -0.96400
O347        O  0.22491088  0.40764079  0.17478257    -0.53700
O348        O  0.17227356  0.38334365  0.24238430    -0.73000
C349        C  0.14514180  0.37056570  0.23935907     0.99300
O350        O  0.07861797  0.24685400  0.21903925    -0.61800
O351        O  0.16577814  0.26450253  0.05671784    -0.56600
O352        O  0.11130529  0.29339991  0.14447254    -0.93300
O353        O  0.14430811  0.30132252  0.08732665    -0.91700
O354        O  0.14183359  0.19109137  0.14037206    -0.92100
O355        O  0.09966417  0.18097400  0.20619392    -0.90900
C356        C  0.12071730  0.29784227  0.10039465     1.18200
H357        H  0.19661628  0.25195645  0.14832467     0.34100
H358        H  0.11994602  0.23613407  0.28644842     0.45000
H359        H  0.16595922  0.34595577  0.16005739     0.38500
H360        H  0.23163944  0.34166309  0.30395562     0.35000
H361        H  0.12877177  0.16061115  0.26701715     0.26800
H362        H  0.19176013  0.34208912  0.38897479     0.32700
H363        H  0.19584884  0.38546995  0.33039537     0.38600
H364        H  0.13217434  0.19869830  0.11863885     0.33100
H365        H  0.17721260  0.27892770  0.02882085     0.31900
H366        H  0.22791436  0.36228112  0.08172684     0.33600
H367        H  0.20788024  0.40381617  0.15720068     0.32600
H368        H  0.09163439  0.19396047  0.19439593     0.36600
H369        H  0.07647795  0.23466568  0.18824541     0.29300
H370        H  0.28715441  0.32421403  0.24348718     0.33600
H371        H  0.25678343  0.42981048  0.25395541     0.36400
H372        H  0.17254117  0.24919519  0.06171256     0.29000
H373        H  0.07535479  0.23063222  0.24518380     0.41900
H374        H  0.16079281  0.23177622  0.38996331     0.31900
H375        H  0.14556737  0.18905711  0.30590559     0.39600
H376        H  0.23436922  0.40072442  0.15131119     0.31400
H377        H  0.18447642  0.31186371  0.42313766     0.31500
H378        H  0.28225386  0.35306296  0.25630880     0.31700
Zr379      Zr  0.39269789  0.26307698  0.72448434     2.17500
O380        O  0.34318818  0.21566981  0.72345875    -0.50600
O381        O  0.38842074  0.31104793  0.72349519    -0.73800
O382        O  0.37104595  0.26448108  0.80081976    -0.80600
O383        O  0.40232761  0.26598081  0.58682006    -0.82300
O384        O  0.40241028  0.27348194  0.86175315    -0.78000
O385        O  0.37174690  0.26189798  0.64606310    -0.89600
O386        O  0.43306096  0.35870791  0.72588245    -0.75600
O387        O  0.42957150  0.30297573  0.77699712    -0.85100
O388        O  0.43080974  0.30264778  0.67326830    -0.84800
O389        O  0.40428623  0.23077627  0.77550672    -0.71500
O390        O  0.40532619  0.23006772  0.67768068    -0.83600
Zr391      Zr  0.49453172  0.27966837  0.72900409     2.26400
Zr392      Zr  0.44202142  0.27159162  0.82684013     2.06300
Zr393      Zr  0.44373078  0.27037281  0.62680844     2.10000
Zr394      Zr  0.46760748  0.34215205  0.72596784     1.78800
O395        O  0.42522195  0.22450685  0.56803676    -0.92400
O396        O  0.48026711  0.37642862  0.79962787    -0.40300
O397        O  0.48183994  0.31106005  0.67824269    -0.76900
O398        O  0.48130887  0.31190237  0.77669874    -0.95600
O399        O  0.45676150  0.24050127  0.78123430    -0.88900
O400        O  0.45734692  0.23959314  0.67647050    -0.91700
C401        C  0.40568039  0.34299646  0.72473435     1.02000
C402        C  0.37934354  0.26378821  0.60122658     1.15000
C403        C  0.37917050  0.26987099  0.84567500     1.05700
O404        O  0.45864123  0.31051235  0.89551756    -0.93900
O405        O  0.48410026  0.27899538  0.86656533    -0.89600
O406        O  0.51565636  0.28404113  0.80846425    -0.82800
C407        C  0.50776507  0.28284536  0.85291925     1.12400
O408        O  0.37057701  0.15294917  0.72543953    -0.95900
Zr409      Zr  0.42006850  0.20064411  0.72894126     1.88900
O410        O  0.50130807  0.23323258  0.73370208    -0.72500
O411        O  0.41916719  0.22296214  0.88098329    -0.51800
O412        O  0.40454027  0.16500707  0.80150585    -0.96400
O413        O  0.41193254  0.16368294  0.66004852    -0.53700
O414        O  0.45624346  0.18706816  0.74037274    -0.73000
C415        C  0.48358632  0.20158905  0.73975448     0.99300
O416        O  0.54434296  0.32655516  0.73030817    -0.61800
O417        O  0.46315345  0.31382692  0.56390083    -0.56600
O418        O  0.51738628  0.28351262  0.65145309    -0.93300
O419        O  0.48684535  0.27828574  0.59114706    -0.91700
O420        O  0.48087082  0.38007710  0.65649647    -0.92100
O421        O  0.51778986  0.38779169  0.72275057    -0.90900
C422        C  0.51029765  0.28232952  0.60645617     1.18200
H423        H  0.42516637  0.31438586  0.65200124     0.34100
H424        H  0.49716123  0.32775492  0.79715172     0.45000
H425        H  0.46378270  0.22800092  0.65634342     0.38500
H426        H  0.38791184  0.21520542  0.79515757     0.35000
H427        H  0.48278739  0.39776653  0.78847682     0.26800
H428        H  0.43163989  0.21402293  0.87960269     0.32700
H429        H  0.41016069  0.14871430  0.79549838     0.38600
H430        H  0.48679282  0.37028624  0.63082148     0.33100
H431        H  0.45638418  0.30142341  0.53257249     0.31900
H432        H  0.42966006  0.23555136  0.53557521     0.33600
H433        H  0.42978584  0.16399167  0.65633898     0.32600
H434        H  0.52684726  0.37944953  0.70095033     0.36600
H435        H  0.54688290  0.33943466  0.70004628     0.29300
H436        H  0.33172943  0.22581453  0.72686767     0.33600
H437        H  0.37148326  0.13262764  0.72371252     0.36400
H438        H  0.45240854  0.32489997  0.56737200     0.29000
H439        H  0.54533574  0.34135236  0.75691207     0.41900
H440        H  0.47454496  0.33203640  0.88200501     0.31900
H441        H  0.46250077  0.36550503  0.81939125     0.39600
H442        H  0.41139476  0.17571083  0.63091700     0.31400
H443        H  0.42216912  0.23261693  0.91425523     0.31500
H444        H  0.34054281  0.20386606  0.75492669     0.31700
C445        C  0.28888227  0.27964211  0.44751420     0.17700
C446        C  0.31170961  0.30741107  0.47163723    -0.11400
C447        C  0.33039128  0.30344400  0.50089623    -0.12200
C448        C  0.32644330  0.27169040  0.50618401     0.19300
C449        C  0.30365133  0.24395801  0.48196894    -0.14300
C450        C  0.28497884  0.24792414  0.45272113    -0.12500
C451        C  0.34540977  0.26750464  0.53715271     0.00300
C452        C  0.36105698  0.26483096  0.56483766    -0.32600
C453        C  0.26985435  0.28369938  0.41657169     0.01600
C454        C  0.25431324  0.28641505  0.38871393    -0.34200
H455        H  0.31508509  0.33209979  0.46779022     0.12700
H456        H  0.34786718  0.32510804  0.51945080     0.12500
H457        H  0.30028384  0.21927148  0.48575596     0.12400
H458        H  0.26752526  0.22626594  0.43411575     0.11400
C459        C  0.32929267  0.28344057  0.94063856     0.17700
C460        C  0.29950613  0.26584300  0.93515924    -0.11400
C461        C  0.28310061  0.27209324  0.96693809    -0.12200
C462        C  0.29634393  0.29599279  0.00445019     0.19300
C463        C  0.32613915  0.31377385  0.00960881    -0.14300
C464        C  0.34252973  0.30752410  0.97786124    -0.12500
C465        C  0.27930909  0.30112998  0.03894954     0.00300
C466        C  0.26456593  0.30364186  0.06897638    -0.32600
C467        C  0.34635263  0.27714217  0.90794957     0.01600
C468        C  0.36114034  0.27299724  0.88021161    -0.34200
H469        H  0.28896503  0.24721006  0.90651544     0.12700
H470        H  0.26008890  0.25805768  0.96257632     0.12500
H471        H  0.33667530  0.33221706  0.03848478     0.12400
H472        H  0.36551731  0.32136845  0.98248990     0.11400
C473        C  0.32169177  0.75869066  0.07479291     0.17700
C474        C  0.35050901  0.77128515  0.06459209    -0.11400
C475        C  0.36619292  0.79930765  0.03401629    -0.12200
C476        C  0.35314377  0.81488969  0.01357346     0.19300
C477        C  0.32435284  0.80230339  0.02386615    -0.14300
C478        C  0.30869060  0.77431739  0.05437991    -0.12500
C479        C  0.36889775  0.84346848  0.98149529     0.00300
C480        C  0.37937842  0.86691308  0.95342309    -0.32600
C481        C  0.30560291  0.73016895  0.10684989     0.01600
C482        C  0.29288917  0.70699176  0.13510230    -0.34200
H483        H  0.36083702  0.75948780  0.08030187     0.12700
H484        H  0.38840869  0.80876815  0.02629827     0.12500
H485        H  0.31400468  0.81410506  0.00823917     0.12400
H486        H  0.28648195  0.76490682  0.06210400     0.11400
C487        C  0.32419833  0.81513579  0.57763624     0.17700
C488        C  0.32169208  0.78446671  0.58659779    -0.11400
C489        C  0.30648155  0.75748481  0.55403946    -0.12200
C490        C  0.29352547  0.76082647  0.51225146     0.19300
C491        C  0.29570616  0.79137500  0.50367276    -0.14300
C492        C  0.31093189  0.81837118  0.53624651    -0.12500
C493        C  0.27915359  0.73340710  0.47737379     0.00300
C494        C  0.26902897  0.71044094  0.44817536    -0.32600
C495        C  0.33990138  0.84302227  0.61122556     0.01600
C496        C  0.35159094  0.86586147  0.64042087    -0.34200
H497        H  0.33161946  0.78146059  0.61858889     0.12700
H498        H  0.30506655  0.73411206  0.56120694     0.12500
H499        H  0.28588794  0.79444183  0.47158481     0.12400
H500        H  0.31248471  0.84181639  0.52900794     0.11400
C501        C  0.83362976  0.28034903  0.00780665     0.17700
C502        C  0.83663857  0.27704413  0.95757034    -0.11400
C503        C  0.81519462  0.27171247  0.92483926    -0.12200
C504        C  0.79061330  0.26980800  0.94202133     0.19300
C505        C  0.78750757  0.27294255  0.99233414    -0.14300
C506        C  0.80898590  0.27829818  0.02510163    -0.12500
C507        C  0.76855051  0.26418886  0.90795417     0.00300
C508        C  0.75008879  0.25788483  0.87842547    -0.32600
C509        C  0.85635581  0.28732869  0.04118827     0.01600
C510        C  0.87599657  0.29592182  0.06912964    -0.34200
H511        H  0.85564478  0.27882185  0.94366151     0.12700
H512        H  0.81783004  0.26919076  0.88610332     0.12500
H513        H  0.76857760  0.27137699  0.00617906     0.12400
H514        H  0.80647042  0.28106514  0.06380801     0.11400
C515        C  0.84011717  0.30814892  0.44200945     0.17700
C516        C  0.81715589  0.30936782  0.42359352    -0.11400
C517        C  0.79463988  0.30307162  0.45447243    -0.12200
C518        C  0.79493783  0.29555806  0.50405627     0.19300
C519        C  0.81796821  0.29449028  0.52248884    -0.14300
C520        C  0.84047699  0.30079428  0.49162708    -0.12500
C521        C  0.77115952  0.28737998  0.53570666     0.00300
C522        C  0.75136813  0.27781652  0.56375105    -0.32600
C523        C  0.86334651  0.31483243  0.41002339     0.01600
C524        C  0.88249531  0.32156388  0.38180158    -0.34200
H525        H  0.81662351  0.31509324  0.38534063     0.12700
H526        H  0.77693598  0.30380552  0.43961736     0.12500
H527        H  0.81841185  0.28851699  0.56065372     0.12400
H528        H  0.85808543  0.29983395  0.50641577     0.11400
C529        C  0.82996930  0.23087067  0.71723399     0.17700
C530        C  0.83869312  0.21366660  0.74636489    -0.11400
C531        C  0.86752579  0.22445613  0.74803841    -0.12200
C532        C  0.88761378  0.25243171  0.72057447     0.19300
C533        C  0.87886964  0.26955458  0.69131201    -0.14300
C534        C  0.85005031  0.25876622  0.68962541    -0.12500
C535        C  0.91716439  0.26341743  0.72213926     0.00300
C536        C  0.94187742  0.27229216  0.72308328    -0.32600
C537        C  0.80061534  0.22076090  0.71690377     0.01600
C538        C  0.77652271  0.21420230  0.71693271    -0.34200
H539        H  0.82328249  0.19214137  0.76795874     0.12700
H540        H  0.87416027  0.21109068  0.77075317     0.12500
H541        H  0.89430142  0.29121770  0.66996185     0.12400
H542        H  0.84345504  0.27227139  0.66713404     0.11400
C543        C  0.07696920  0.30103108  0.98384981     0.17700
C544        C  0.08533885  0.33169317  0.96142973    -0.11400
C545        C  0.07232169  0.33200719  0.91780658    -0.12200
C546        C  0.05099531  0.30165086  0.89655258     0.19300
C547        C  0.04263969  0.27105618  0.91903069    -0.14300
C548        C  0.05561099  0.27074273  0.96258739    -0.12500
C549        C  0.03789722  0.30156928  0.85127699     0.00300
C550        C  0.02641290  0.29970937  0.81303632    -0.32600
C551        C  0.09103982  0.30041795  0.02750931     0.01600
C552        C  0.10376820  0.29923094  0.06224728    -0.34200
H553        H  0.10203486  0.35524141  0.97740696     0.12700
H554        H  0.07898980  0.35579023  0.90053758     0.12500
H555        H  0.02625016  0.24746484  0.90270607     0.12400
H556        H  0.04918311  0.24691380  0.97943717     0.11400
C557        C  0.04962440  0.29796482  0.55215360     0.17700
C558        C  0.03197478  0.28387127  0.51101510    -0.11400
C559        C  0.04344216  0.28177821  0.46670357    -0.12200
C560        C  0.07255675  0.29380106  0.46357559     0.19300
C561        C  0.09022972  0.30806022  0.50465248    -0.14300
C562        C  0.07877068  0.31014511  0.54893024    -0.12500
C563        C  0.08440277  0.29092735  0.41874344     0.00300
C564        C  0.09653969  0.28905043  0.38375943    -0.32600
C565        C  0.03760602  0.29886389  0.59804064     0.01600
C566        C  0.02674487  0.29808054  0.63645282    -0.34200
H567        H  0.00936232  0.27424486  0.51334654     0.12700
H568        H  0.02963636  0.27059445  0.43512486     0.12500
H569        H  0.11277536  0.31729258  0.50252633     0.12400
H570        H  0.09252489  0.32092772  0.58066110     0.11400
C571        C  0.80201308  0.34965873  0.22237940     0.17700
C572        C  0.79499970  0.36659941  0.25567530    -0.11400
C573        C  0.76704957  0.35913972  0.25774804    -0.12200
C574        C  0.74608776  0.33468316  0.22661139     0.19300
C575        C  0.75315394  0.31792223  0.19310294    -0.14300
C576        C  0.78108971  0.32539144  0.19100635    -0.12500
C577        C  0.71736064  0.32686117  0.22882911     0.00300
C578        C  0.69336394  0.32064782  0.22966174    -0.32600
C579        C  0.83051131  0.35666062  0.22091478     0.01600
C580        C  0.85409460  0.36158224  0.21980631    -0.34200
H581        H  0.81106102  0.38539185  0.28009942     0.12700
H582        H  0.76176434  0.37230157  0.28365378     0.12500
H583        H  0.73707719  0.29904975  0.16877927     0.12400
H584        H  0.78634183  0.31216434  0.16515953     0.11400
C585        C  0.55808010  0.29080832  0.48936762     0.17700
C586        C  0.55331144  0.30528219  0.44884430    -0.11400
C587        C  0.56670691  0.30801682  0.40431001    -0.12200
C588        C  0.58485261  0.29619276  0.40012410     0.19300
C589        C  0.58954805  0.28156674  0.44060986    -0.14300
C590        C  0.57613548  0.27884310  0.48524121    -0.12500
C591        C  0.59865082  0.29918217  0.35427246     0.00300
C592        C  0.61031327  0.30195497  0.31583557    -0.32600
C593        C  0.54386024  0.28782631  0.53463709     0.01600
C594        C  0.52983635  0.28549173  0.56968236    -0.34200
H595        H  0.53922159  0.31440781  0.45168756     0.12700
H596        H  0.56292347  0.31931715  0.37319499     0.12500
H597        H  0.60353012  0.27230515  0.43765165     0.12400
H598        H  0.57979328  0.26743496  0.51636196     0.11400
C599        C  0.55666778  0.29088890  0.96870880     0.17700
C600        C  0.54773610  0.29703200  0.01308734    -0.11400
C601        C  0.56233453  0.30008908  0.05625405    -0.12200
C602        C  0.58595220  0.29702140  0.05528819     0.19300
C603        C  0.59484216  0.29059591  0.01093933    -0.14300
C604        C  0.58017719  0.28751993  0.96759085    -0.12500
C605        C  0.60083240  0.30053401  0.10007670     0.00300
C606        C  0.61235949  0.30344690  0.13871415    -0.32600
C607        C  0.54139597  0.28809029  0.92478899     0.01600
C608        C  0.52680613  0.28588598  0.89068263    -0.34200
H609        H  0.52950833  0.29953408  0.01428678     0.12700
H610        H  0.55525238  0.30492925  0.09037390     0.12500
H611        H  0.61304945  0.28805903  0.00989238     0.12400
H612        H  0.58715141  0.28262021  0.93340125     0.11400
C613        C  0.31024965  0.38767786  0.75450344     0.17700
C614        C  0.33457669  0.40361580  0.78441104    -0.11400
C615        C  0.35731753  0.39976297  0.77484614    -0.12200
C616        C  0.35579633  0.38004185  0.73529562     0.19300
C617        C  0.33165686  0.36455401  0.70492894    -0.14300
C618        C  0.30893422  0.36841778  0.71447422    -0.12500
C619        C  0.37751533  0.37280202  0.72878814     0.00300
C620        C  0.39271851  0.36207103  0.72571736    -0.32600
C621        C  0.28632167  0.39029626  0.76563694     0.01600
C622        C  0.26618356  0.39224418  0.77539028    -0.34200
H623        H  0.33573669  0.41848830  0.81554614     0.12700
H624        H  0.37573178  0.41145393  0.79890507     0.12500
H625        H  0.33011884  0.34886257  0.67465017     0.12400
H626        H  0.29016991  0.35593119  0.69123503     0.11400
C627        C  0.23310251  0.45515464  0.08207767     0.17700
C628        C  0.25420722  0.45582115  0.05331996    -0.11400
C629        C  0.24713658  0.44043458  0.00733991    -0.12200
C630        C  0.21897090  0.42438900  0.99004685     0.19300
C631        C  0.19761437  0.42230382  0.01985875    -0.14300
C632        C  0.20468411  0.43765243  0.06586483    -0.12500
C633        C  0.21278984  0.41269110  0.94030839     0.00300
C634        C  0.21130383  0.40602569  0.89742628    -0.32600
C635        C  0.24087777  0.47555419  0.12526260     0.01600
C636        C  0.24557534  0.49493920  0.15791596    -0.34200
H637        H  0.27624774  0.46939073  0.06548645     0.12700
H638        H  0.26381399  0.44218251  0.98449872     0.12500
H639        H  0.17579400  0.40997131  0.00683997     0.12400
H640        H  0.18823805  0.43709017  0.08790191     0.11400
C641        C  0.18926039  0.45923074  0.54957281     0.17700
C642        C  0.19077419  0.47641241  0.59241148    -0.11400
C643        C  0.18749157  0.46141667  0.63810110    -0.12200
C644        C  0.18256086  0.42913160  0.64110496     0.19300
C645        C  0.17959816  0.41130039  0.59813170    -0.14300
C646        C  0.18293007  0.42633448  0.55240418    -0.12500
C647        C  0.18498901  0.41660930  0.68762441     0.00300
C648        C  0.19201268  0.40888481  0.72445740    -0.32600
C649        C  0.19688604  0.47663132  0.50349093     0.01600
C650        C  0.20538189  0.49406493  0.46747356    -0.34200
H651        H  0.19572018  0.50191159  0.59058402     0.12700
H652        H  0.19016361  0.47559570  0.67104460     0.12500
H653        H  0.17610773  0.38647208  0.60001684     0.12400
H654        H  0.18179339  0.41289626  0.51947771     0.11400
C655        C  0.40586665  0.87888067  0.26481373     0.17700
C656        C  0.39486964  0.86787196  0.31200509    -0.11400
C657        C  0.38461376  0.83481846  0.32599493    -0.12200
C658        C  0.38548622  0.81280834  0.29286313     0.19300
C659        C  0.39685122  0.82398800  0.24590964    -0.14300
C660        C  0.40708978  0.85702002  0.23192336    -0.12500
C661        C  0.37152667  0.77782410  0.30463032     0.00300
C662        C  0.35577107  0.74797538  0.31008469    -0.32600
C663        C  0.41643181  0.91280389  0.25051254     0.01600
C664        C  0.42677538  0.94182622  0.23998848    -0.34200
H665        H  0.39394860  0.88469851  0.33770439     0.12700
H666        H  0.37541582  0.82621811  0.36210482     0.12500
H667        H  0.39715402  0.80695984  0.21978074     0.12400
H668        H  0.41565194  0.86539273  0.19539920     0.11400
C669        C  0.50222904  0.08190160  0.38561644     0.17700
C670        C  0.49076148  0.06181439  0.42759427    -0.11400
C671        C  0.50578839  0.07219764  0.47187708    -0.12200
C672        C  0.53236213  0.10270660  0.47430638     0.19300
C673        C  0.54346269  0.12314956  0.43261534    -0.14300
C674        C  0.52845587  0.11276177  0.38836567    -0.12500
C675        C  0.54897117  0.11262697  0.51869382     0.00300
C676        C  0.56484405  0.12278531  0.55350123    -0.32600
C677        C  0.48866048  0.06905441  0.33892410     0.01600
C678        C  0.47824478  0.05465029  0.30089912    -0.34200
H679        H  0.47064543  0.03769754  0.42572274     0.12700
H680        H  0.49702861  0.05613814  0.50380817     0.12500
H681        H  0.56403417  0.14674601  0.43404182     0.12400
H682        H  0.53768611  0.12829271  0.35603915     0.11400
C683        C  0.49967607  0.05252049  0.03899039     0.17700
C684        C  0.49755933  0.07560588  0.01030591    -0.11400
C685        C  0.51298706  0.08755362  0.96657142    -0.12200
C686        C  0.53055021  0.07641286  0.95131522     0.19300
C687        C  0.53211514  0.05269567  0.97945294    -0.14300
C688        C  0.51665879  0.04072161  0.02314214    -0.12500
C689        C  0.54824916  0.09085898  0.90850604     0.00300
C690        C  0.56445229  0.10506396  0.87480120    -0.32600
C691        C  0.48588252  0.04239866  0.08600072     0.01600
C692        C  0.47602750  0.03390148  0.12658346    -0.34200
H693        H  0.48455301  0.08493939  0.02230515     0.12700
H694        H  0.51170919  0.10599905  0.94522986     0.12500
H695        H  0.54572978  0.04403110  0.96817969     0.12400
H696        H  0.51847408  0.02289397  0.04511473     0.11400
C697        C  0.22950566  0.68821743  0.76990033     0.17700
C698        C  0.22878780  0.71239201  0.74149785    -0.11400
C699        C  0.24274486  0.74565825  0.75772081    -0.12200
C700        C  0.25739450  0.75487105  0.80247163     0.19300
C701        C  0.25790147  0.73063293  0.83110641    -0.14300
C702        C  0.24391259  0.69733785  0.81489261    -0.12500
C703        C  0.27378873  0.78965660  0.81671801     0.00300
C704        C  0.28980070  0.81940822  0.82340549    -0.32600
C705        C  0.21555171  0.65409807  0.75291188     0.01600
C706        C  0.20344804  0.62517454  0.74009431    -0.34200
H707        H  0.21771480  0.70560849  0.70665849     0.12700
H708        H  0.24253120  0.76430012  0.73501211     0.12500
H709        H  0.26946850  0.73756946  0.86546682     0.12400
H710        H  0.24458099  0.67881206  0.83713241     0.11400
C711        C  0.11829682  0.48129335  0.87346038     0.17700
C712        C  0.13146077  0.47869189  0.91543429    -0.11400
C713        C  0.11706695  0.46998154  0.96034591    -0.12200
C714        C  0.08957580  0.46408135  0.96339553     0.19300
C715        C  0.07613950  0.46579197  0.92116054    -0.14300
C716        C  0.09049232  0.47444720  0.87632143    -0.12500
C717        C  0.07502529  0.45629241  0.00967031     0.00300
C718        C  0.06097439  0.44789718  0.04660492    -0.32600
C719        C  0.13422176  0.49468512  0.82881654     0.01600
C720        C  0.14699527  0.51027766  0.79277949    -0.34200
H721        H  0.15306817  0.48427693  0.91371164     0.12700
H722        H  0.12754157  0.46847102  0.99276284     0.12500
H723        H  0.05480335  0.46104962  0.92307358     0.12400
H724        H  0.08023968  0.47674315  0.84419218     0.11400
C725        C  0.13448156  0.51980964  0.53085872     0.17700
C726        C  0.11933556  0.53373202  0.51377533    -0.11400
C727        C  0.10482830  0.52323448  0.46909767    -0.12200
C728        C  0.10539900  0.49875604  0.44129665     0.19300
C729        C  0.12134578  0.48565050  0.45754032    -0.14300
C730        C  0.13583306  0.49612342  0.50231039    -0.12500
C731        C  0.08736965  0.48469235  0.39889595     0.00300
C732        C  0.07016761  0.47033098  0.36660924    -0.32600
C733        C  0.14725780  0.52867695  0.57876644     0.01600
C734        C  0.15622428  0.53649570  0.61998068    -0.34200
H735        H  0.11810956  0.55202313  0.53560757     0.12700
H736        H  0.09244463  0.53339490  0.45701845     0.12500
H737        H  0.12182009  0.46658985  0.43640431     0.12400
H738        H  0.14740308  0.48513196  0.51524284     0.11400
C739        C  0.25321739  0.17100580  0.24430426     0.17700
C740        C  0.26397236  0.16183264  0.20527846    -0.11400
C741        C  0.28706172  0.15821755  0.21277950    -0.12200
C742        C  0.29951446  0.16387958  0.25929547     0.19300
C743        C  0.28831306  0.17227148  0.29850932    -0.14300
C744        C  0.26525294  0.17585166  0.29103350    -0.12500
C745        C  0.32431431  0.16220482  0.26681026     0.00300
C746        C  0.34521639  0.16148635  0.27548728    -0.32600
C747        C  0.23236611  0.17950710  0.23557290     0.01600
C748        C  0.21866774  0.19210356  0.22991119    -0.34200
H749        H  0.25509336  0.15847649  0.16885860     0.12700
H750        H  0.29558563  0.15176999  0.18217813     0.12500
H751        H  0.29781225  0.17678442  0.33459826     0.12400
H752        H  0.25739547  0.18342071  0.32133603     0.11400
C753        C  0.39574930  0.13112054  0.49282110     0.17700
C754        C  0.41294837  0.12043985  0.51155558    -0.11400
C755        C  0.40749844  0.10591781  0.55805927    -0.12200
C756        C  0.38477673  0.10184601  0.58620726     0.19300
C757        C  0.36797856  0.11335692  0.56816806    -0.14300
C758        C  0.37349256  0.12801133  0.52151921    -0.12500
C759        C  0.37825228  0.08400257  0.63200555     0.00300
C760        C  0.37577822  0.06664709  0.66644576    -0.32600
C761        C  0.39952734  0.14273147  0.44289183     0.01600
C762        C  0.40031123  0.14977758  0.40018247    -0.34200
H763        H  0.43008958  0.12251461  0.48971781     0.12700
H764        H  0.42057600  0.09703437  0.57158833     0.12500
H765        H  0.35034690  0.11035378  0.58956906     0.12400
H766        H  0.35996765  0.13607801  0.50732806     0.11400
C767        C  0.44051239  0.11328607  0.05395718     0.17700
C768        C  0.43931582  0.14204016  0.05661256    -0.11400
C769        C  0.43922137  0.15536408  0.10226221    -0.12200
C770        C  0.44032402  0.13996700  0.14534916     0.19300
C771        C  0.44281096  0.11209884  0.14252670    -0.14300
C772        C  0.44295395  0.09882146  0.09690431    -0.12500
C773        C  0.43474391  0.14967122  0.19180294     0.00300
C774        C  0.42543502  0.15480488  0.22824026    -0.32600
C775        C  0.43593456  0.09627112  0.00808966     0.01600
C776        C  0.42939157  0.07858951  0.97250324    -0.34200
H777        H  0.43718280  0.15322701  0.02361693     0.12700
H778        H  0.43692157  0.17665554  0.10400340     0.12500
H779        H  0.44329247  0.09971023  0.17554172     0.12400
H780        H  0.44365808  0.07640031  0.09521024     0.11400
loop_ 
_geom_bond_atom_site_label_1 
_geom_bond_atom_site_label_2 
_geom_bond_distance 
_geom_bond_site_symmetry_2 
_ccdc_geom_bond_type 
C1            N2   1.354       .  A
C1            N6   1.355       .  A
C1          C746   1.435       .  S
N2            C3   1.356       .  A
C3            N4   1.361       .  A
C3          C762   1.437       .  S
N4            C5   1.361       .  A
C5            N6   1.357       .  A
C5          C774   1.436       .  S
C7            N8   1.354       .  A
C7           N12   1.356       .  A
C7          C706   1.433       .  S
N8            C9   1.355       .  A
C9           N10   1.358       .  A
C9          C720   1.432       .  S
N10          C11   1.359       .  A
C11          N12   1.358       .  A
C11         C734   1.435       .  S
C13          N14   1.353       .  A
C13          N18   1.354       .  A
C13         C664   1.428       .  S
N14          C15   1.354   1_565  A
C15          N16   1.359       .  A
C15         C678   1.433       .  S
N16          C17   1.360       .  A
C17          N18   1.356   1_545  A
C17         C692   1.433       .  S
C19          N20   1.354       .  A
C19          N24   1.353       .  A
C19         C622   1.431       .  S
N20          C21   1.356       .  A
C21          N22   1.360       .  A
C21         C648   1.434       .  S
N22          C23   1.361       .  A
C23          N24   1.355       .  A
C23         C634   1.432       .  S
C25          N26   1.355       .  A
C25          N30   1.355       .  A
C25         C578   1.429       .  S
N26          C27   1.355       .  A
C27          N28   1.358       .  A
C27         C606   1.431       .  S
N28          C29   1.358       .  A
C29          N30   1.356       .  A
C29         C592   1.431       .  S
C31          N32   1.354       .  A
C31          N36   1.355       .  A
C31         C536   1.427       .  S
N32          C33   1.355   1_655  A
C33          N34   1.356       .  A
C33         C566   1.428       .  S
N34          C35   1.356       .  A
C35          N36   1.356   1_455  A
C35         C550   1.430       .  S
Zr37         O38   2.437       .  S
Zr37         O39   2.417       .  S
Zr37         O40   2.441       .  S
Zr37         O43   2.437       .  S
Zr37         O45   2.376       .  S
Zr37         O46   2.383       .  S
Zr37         O47   2.409       .  S
Zr37         O48   2.409       .  S
O38          H94   0.992       .  S
O38         H102   0.989       .  S
O39          C59   1.281       .  A
O40          C61   1.285       .  A
O41         Zr51   2.448       .  S
O41          C60   1.286       .  A
O42         Zr50   2.433       .  S
O42          C61   1.283       .  A
O43          C60   1.285       .  A
O44         Zr52   2.427       .  S
O44          C59   1.282       .  A
O45         Zr50   2.376       .  S
O45         Zr52   2.368       .  S
O46         Zr51   2.382       .  S
O46         Zr52   2.366       .  S
O46          H81   0.967       .  S
O47         Zr50   2.394       .  S
O47         Zr67   2.414       .  S
O47          H84   0.966       .  S
O48         Zr51   2.394       .  S
O48         Zr67   2.417       .  S
Zr49         O74   2.439       .  S
Zr49         O68   2.402       .  S
Zr49         O76   2.441       .  S
Zr49         O64   2.438       .  S
Zr49         O55   2.401       .  S
Zr49         O56   2.400       .  S
Zr49         O57   2.376       .  S
Zr49         O58   2.382       .  S
Zr50         O69   2.434       .  S
Zr50         O62   2.434       .  S
Zr50         O63   2.425       .  S
Zr50         O56   2.400       .  S
Zr50         O57   2.382       .  S
Zr51         O53   2.435       .  S
Zr51         O75   2.437       .  S
Zr51         O77   2.431       .  S
Zr51         O55   2.403       .  S
Zr51         O58   2.393       .  S
Zr52         O78   2.436       .  S
Zr52         O79   2.435       .  S
Zr52         O54   2.435       .  S
Zr52         O55   2.397       .  S
Zr52         O56   2.390       .  S
O53          H90   0.990       .  S
O54          H85   0.990       .  S
O54          H99   0.991       .  S
O56          H82   0.963       .  S
O57         Zr67   2.368       .  S
O58         Zr67   2.370       .  S
O58          H83   0.966       .  S
C59         C538   1.427       .  S
C60         C522   1.442       .  S
C61         C508   1.441       .  S
O62          H98   0.990       .  S
O63          C65   1.282       .  A
O64          C65   1.285       .  A
C65         C690   1.435       .  S
O66         Zr67   2.438       .  S
O66          H95   0.991       .  S
Zr67         O70   2.436       .  S
Zr67         O71   2.440       .  S
Zr67         O72   2.468       .  S
O68          C73   1.280       .  A
O69          H86   0.989       .  S
O69         H101   0.991       .  S
O70          H87   0.990       .  S
O71          H91   0.990       .  S
O71         H100   0.990       .  S
O72          C73   1.289       .  A
C73         C303   1.477       .  S
O74          H93   0.990       .  S
O74          H97   0.990       .  S
O75          H89   0.991       .  S
O75          H96   0.990       .  S
O76          C80   1.286       .  A
O77          C80   1.284       .  A
O78          H88   0.990       .  S
O79          H92   0.990       .  S
C80         C676   1.436       .  S
Zr103       O104   2.437       .  S
Zr103       O105   2.422       .  S
Zr103       O106   2.435       .  S
Zr103       O109   2.437       .  S
Zr103       O111   2.374       .  S
Zr103       O112   2.378       .  S
Zr103       O113   2.413       .  S
Zr103       O114   2.411       .  S
O104        H160   0.992       .  S
O104        H168   0.988       .  S
O105        C125   1.281       .  A
O106        C127   1.284       .  A
O107       Zr117   2.438       .  S
O107        C126   1.284       .  A
O108       Zr116   2.440       .  S
O108        C127   1.285       .  A
O109        C126   1.284       .  A
O110       Zr118   2.428       .  S
O110        C125   1.282       .  A
O111       Zr116   2.375       .  S
O111       Zr118   2.364       .  S
O112       Zr117   2.379       .  S
O112       Zr118   2.368       .  S
O112        H147   0.967       .  S
O113       Zr116   2.398       .  S
O113       Zr133   2.416       .  S
O113        H150   0.965       .  S
O114       Zr117   2.395       .  S
O114       Zr133   2.423       .  S
Zr115       O140   2.437       .  S
Zr115       O134   2.400       .  S
Zr115       O142   2.440       .  S
Zr115       O130   2.428       .  S
Zr115       O121   2.394   1_455  S
Zr115       O122   2.402   1_455  S
Zr115       O123   2.379       .  S
Zr115       O124   2.381       .  S
Zr116       O135   2.435       .  S
Zr116       O128   2.433       .  S
Zr116       O129   2.431   1_655  S
Zr116       O122   2.399       .  S
Zr116       O123   2.384   1_655  S
Zr117       O119   2.435       .  S
Zr117       O141   2.436       .  S
Zr117       O143   2.419   1_655  S
Zr117       O121   2.397       .  S
Zr117       O124   2.391   1_655  S
Zr118       O144   2.435       .  S
Zr118       O145   2.437       .  S
Zr118       O120   2.437       .  S
Zr118       O121   2.398       .  S
Zr118       O122   2.390       .  S
O119        H156   0.990       .  S
O120        H151   0.990       .  S
O120        H165   0.991       .  S
O122        H148   0.964   1_655  S
O123       Zr133   2.363   1_455  S
O124       Zr133   2.370   1_455  S
O124        H149   0.966       .  S
C125        C580   1.429       .  S
C126        C510   1.439       .  S
C127        C524   1.441       .  S
O128        H164   0.990       .  S
O129        C131   1.284       .  A
O130        C131   1.283       .  A
C131        C732   1.433       .  S
O132       Zr133   2.439       .  S
O132        H161   0.991       .  S
Zr133       O136   2.437   1_655  S
Zr133       O137   2.441   1_655  S
Zr133       O138   2.477   1_655  S
O134        C139   1.279       .  A
O135        H152   0.989   1_655  S
O135        H167   0.992       .  S
O136        H153   0.990       .  S
O137        H157   0.990       .  S
O137        H166   0.990   1_455  S
O138        C139   1.291       .  A
C139        C311   1.479       .  S
O140        H159   0.990       .  S
O140        H163   0.990       .  S
O141        H155   0.990       .  S
O141        H162   0.990       .  S
O142        C146   1.285       .  A
O143        C146   1.281       .  A
O144        H154   0.990       .  S
O145        H158   0.990       .  S
C146        C718   1.431       .  S
Zr169       O170   2.436       .  S
Zr169       O171   2.411       .  S
Zr169       O172   2.434       .  S
Zr169       O175   2.436       .  S
Zr169       O177   2.374       .  S
Zr169       O178   2.381       .  S
Zr169       O179   2.407       .  S
Zr169       O180   2.400       .  S
O170        H226   0.990       .  S
O170        H234   0.991       .  S
O171        C191   1.280       .  A
O172        C193   1.284       .  A
O173       Zr183   2.440       .  S
O173        C192   1.285       .  A
O174       Zr182   2.432       .  S
O174        C193   1.283       .  A
O175        C192   1.285       .  A
O176       Zr184   2.444       .  S
O176        C191   1.285       .  A
O177       Zr182   2.377       .  S
O177       Zr184   2.365       .  S
O178       Zr183   2.372       .  S
O178       Zr184   2.372       .  S
O178        H213   0.964       .  S
O179       Zr182   2.394       .  S
O179       Zr199   2.409   1_565  S
O179        H216   0.957       .  S
O180       Zr183   2.395       .  S
O180       Zr199   2.405   1_565  S
Zr181       O206   2.439       .  S
Zr181       O200   2.418       .  S
Zr181       O208   2.437       .  S
Zr181       O196   2.432       .  S
Zr181       O187   2.402   1_545  S
Zr181       O188   2.407   1_545  S
Zr181       O189   2.381       .  S
Zr181       O190   2.382       .  S
Zr182       O201   2.437       .  S
Zr182       O194   2.434       .  S
Zr182       O195   2.420   1_565  S
Zr182       O188   2.401       .  S
Zr182       O189   2.386   1_565  S
Zr183       O185   2.434       .  S
Zr183       O207   2.435       .  S
Zr183       O209   2.430   1_565  S
Zr183       O187   2.395       .  S
Zr183       O190   2.384   1_565  S
Zr184       O210   2.435       .  S
Zr184       O211   2.435       .  S
Zr184       O186   2.436       .  S
Zr184       O187   2.401       .  S
Zr184       O188   2.403       .  S
O185        H222   0.990       .  S
O186        H217   0.991       .  S
O186        H231   0.990       .  S
O188        H214   0.961       .  S
O189       Zr199   2.369       .  S
O190       Zr199   2.371       .  S
O190        H215   0.961       .  S
C191        C704   1.432       .  S
C192        C496   1.442       .  S
C193        C480   1.436       .  S
O194        H230   0.990       .  S
O195        C197   1.281       .  A
O196        C197   1.284       .  A
C197        C776   1.430       .  S
O198       Zr199   2.435   1_565  S
O198        H227   0.990       .  S
Zr199       O202   2.437       .  S
Zr199       O203   2.437       .  S
Zr199       O204   2.450       .  S
O200        C205   1.282       .  A
O201        H218   0.990   1_565  S
O201        H233   0.990       .  S
O202        H219   0.990       .  S
O203        H223   0.989       .  S
O203        H232   0.991       .  S
O204        C205   1.288       .  A
C205        C305   1.472       .  S
O206        H225   0.990       .  S
O206        H229   0.991       .  S
O207        H221   0.991       .  S
O207        H228   0.989       .  S
O208        C212   1.284       .  A
O209        C212   1.283       .  A
O210        H220   0.991       .  S
O211        H224   0.989       .  S
C212        C760   1.435       .  S
Zr235       O236   2.438       .  S
Zr235       O237   2.410       .  S
Zr235       O238   2.448       .  S
Zr235       O241   2.431       .  S
Zr235       O243   2.374       .  S
Zr235       O244   2.385       .  S
Zr235       O245   2.408       .  S
Zr235       O246   2.408       .  S
O236        H292   0.990       .  S
O236        H300   0.991       .  S
O237        C257   1.279       .  A
O238        C259   1.286       .  A
O239       Zr249   2.440       .  S
O239        C258   1.285       .  A
O240       Zr248   2.442       .  S
O240        C259   1.285       .  A
O241        C258   1.284       .  A
O242       Zr250   2.436       .  S
O242        C257   1.283       .  A
O243       Zr248   2.381       .  S
O243       Zr250   2.371       .  S
O244       Zr249   2.379       .  S
O244       Zr250   2.367       .  S
O244        H279   0.966       .  S
O245       Zr248   2.394       .  S
O245       Zr265   2.416       .  S
O245        H282   0.963       .  S
O246       Zr249   2.397       .  S
O246       Zr265   2.410       .  S
Zr247       O272   2.438       .  S
Zr247       O266   2.409       .  S
Zr247       O274   2.423       .  S
Zr247       O262   2.432       .  S
Zr247       O253   2.401       .  S
Zr247       O254   2.402       .  S
Zr247       O255   2.377       .  S
Zr247       O256   2.385       .  S
Zr248       O267   2.436       .  S
Zr248       O260   2.434       .  S
Zr248       O261   2.418       .  S
Zr248       O254   2.403       .  S
Zr248       O255   2.385       .  S
Zr249       O251   2.435       .  S
Zr249       O273   2.436       .  S
Zr249       O275   2.433       .  S
Zr249       O253   2.397       .  S
Zr249       O256   2.379       .  S
Zr250       O276   2.436       .  S
Zr250       O277   2.436       .  S
Zr250       O252   2.435       .  S
Zr250       O253   2.400       .  S
Zr250       O254   2.399       .  S
O251        H288   0.990       .  S
O252        H283   0.990       .  S
O252        H297   0.990       .  S
O254        H280   0.962       .  S
O255       Zr265   2.368       .  S
O256       Zr265   2.366       .  S
O256        H281   0.964       .  S
C257        C662   1.428       .  S
C258        C482   1.437       .  S
C259        C494   1.447       .  S
O260        H296   0.990       .  S
O261        C263   1.281       .  A
O262        C263   1.284       .  A
C263        C650   1.430       .  S
O264       Zr265   2.435       .  S
O264        H293   0.990       .  S
Zr265       O268   2.436       .  S
Zr265       O269   2.437       .  S
Zr265       O270   2.465       .  S
O266        C271   1.281       .  A
O267        H284   0.990       .  S
O267        H299   0.990       .  S
O268        H285   0.991       .  S
O269        H289   0.988       .  S
O269        H298   0.992       .  S
O270        C271   1.290       .  A
C271        C309   1.476       .  S
O272        H291   0.991       .  S
O272        H295   0.990       .  S
O273        H287   0.991       .  S
O273        H294   0.989       .  S
O274        C278   1.282       .  A
O275        C278   1.284       .  A
O276        H286   0.990       .  S
O277        H290   0.990       .  S
C278        C636   1.429       .  S
C301        N302   1.368       .  A
C301        N306   1.359       .  A
C301        C415   1.476       .  S
N302        C303   1.366       .  A
C303        N304   1.361       .  A
N304        C305   1.352       .  A
C305        N306   1.354       .  A
C307        N308   1.357       .  A
C307        N312   1.367       .  A
C307        C349   1.479       .  S
N308        C309   1.356       .  A
C309        N310   1.355       .  A
N310        C311   1.364       .  A
C311        N312   1.365       .  A
Zr313       O314   2.436       .  S
Zr313       O315   2.419       .  S
Zr313       O316   2.437       .  S
Zr313       O319   2.442       .  S
Zr313       O321   2.378       .  S
Zr313       O322   2.379       .  S
Zr313       O323   2.404       .  S
Zr313       O324   2.404       .  S
O314        H370   0.990       .  S
O314        H378   0.991       .  S
O315        C335   1.280       .  A
O316        C337   1.284       .  A
O317       Zr327   2.440       .  S
O317        C336   1.284       .  A
O318       Zr326   2.438       .  S
O318        C337   1.284       .  A
O319        C336   1.286       .  A
O320       Zr328   2.435       .  S
O320        C335   1.283       .  A
O321       Zr326   2.381       .  S
O321       Zr328   2.373       .  S
O322       Zr327   2.388       .  S
O322       Zr328   2.372       .  S
O322        H357   0.966       .  S
O323       Zr326   2.393       .  S
O323       Zr343   2.400       .  S
O323        H360   0.965       .  S
O324       Zr327   2.393       .  S
O324       Zr343   2.410       .  S
Zr325       O350   2.437       .  S
Zr325       O344   2.423       .  S
Zr325       O352   2.432       .  S
Zr325       O340   2.427       .  S
Zr325       O331   2.402       .  S
Zr325       O332   2.407       .  S
Zr325       O333   2.378       .  S
Zr325       O334   2.383       .  S
Zr326       O345   2.435       .  S
Zr326       O338   2.436       .  S
Zr326       O339   2.419       .  S
Zr326       O332   2.398       .  S
Zr326       O333   2.383       .  S
Zr327       O329   2.439       .  S
Zr327       O351   2.435       .  S
Zr327       O353   2.424       .  S
Zr327       O331   2.401       .  S
Zr327       O334   2.390       .  S
Zr328       O354   2.435       .  S
Zr328       O355   2.436       .  S
Zr328       O330   2.436       .  S
Zr328       O331   2.404       .  S
Zr328       O332   2.396       .  S
O329        H366   0.990       .  S
O330        H361   0.990       .  S
O330        H375   0.991       .  S
O332        H358   0.968       .  S
O333       Zr343   2.358       .  S
O334       Zr343   2.369       .  S
O334        H359   0.969       .  S
C335        C748   1.434       .  S
C336        C466   1.443       .  S
C337        C454   1.441       .  S
O338        H374   0.990       .  S
O339        C341   1.281       .  A
O340        C341   1.283       .  A
C341        C564   1.426       .  S
O342       Zr343   2.439       .  S
O342        H371   0.991       .  S
Zr343       O346   2.437       .  S
Zr343       O347   2.431       .  S
Zr343       O348   2.455       .  S
O344        C349   1.281       .  A
O345        H362   0.990       .  S
O345        H377   0.990       .  S
O346        H363   0.990       .  S
O347        H367   0.988       .  S
O347        H376   0.991       .  S
O348        C349   1.290       .  A
O350        H369   0.990       .  S
O350        H373   0.990       .  S
O351        H365   0.990       .  S
O351        H372   0.990       .  S
O352        C356   1.284       .  A
O353        C356   1.282       .  A
O354        H364   0.990       .  S
O355        H368   0.989       .  S
C356        C552   1.431       .  S
Zr379       O380   2.435       .  S
Zr379       O381   2.408       .  S
Zr379       O382   2.427       .  S
Zr379       O385   2.425       .  S
Zr379       O387   2.374       .  S
Zr379       O388   2.378       .  S
Zr379       O389   2.400       .  S
Zr379       O390   2.400       .  S
O380        H436   0.989       .  S
O380        H444   0.991       .  S
O381        C401   1.279       .  A
O382        C403   1.283       .  A
O383       Zr393   2.455       .  S
O383        C402   1.288       .  A
O384       Zr392   2.448       .  S
O384        C403   1.287       .  A
O385        C402   1.283       .  A
O386       Zr394   2.438       .  S
O386        C401   1.284       .  A
O387       Zr392   2.378       .  S
O387       Zr394   2.368       .  S
O388       Zr393   2.377       .  S
O388       Zr394   2.369       .  S
O388        H423   0.966       .  S
O389       Zr392   2.390       .  S
O389       Zr409   2.404       .  S
O389        H426   0.966       .  S
O390       Zr393   2.391       .  S
O390       Zr409   2.410       .  S
Zr391       O416   2.438       .  S
Zr391       O410   2.426       .  S
Zr391       O418   2.426       .  S
Zr391       O406   2.423       .  S
Zr391       O397   2.401       .  S
Zr391       O398   2.405       .  S
Zr391       O399   2.380       .  S
Zr391       O400   2.385       .  S
Zr392       O411   2.434       .  S
Zr392       O404   2.434       .  S
Zr392       O405   2.428       .  S
Zr392       O398   2.403       .  S
Zr392       O399   2.387       .  S
Zr393       O395   2.435       .  S
Zr393       O417   2.437       .  S
Zr393       O419   2.423       .  S
Zr393       O397   2.399       .  S
Zr393       O400   2.394       .  S
Zr394       O420   2.435       .  S
Zr394       O421   2.436       .  S
Zr394       O396   2.437       .  S
Zr394       O397   2.399       .  S
Zr394       O398   2.394       .  S
O395        H432   0.990       .  S
O396        H427   0.989       .  S
O396        H441   0.991       .  S
O398        H424   0.968       .  S
O399       Zr409   2.366       .  S
O400       Zr409   2.368       .  S
O400        H425   0.972       .  S
C401        C620   1.429       .  S
C402        C452   1.442       .  S
C403        C468   1.442       .  S
O404        H440   0.990       .  S
O405        C407   1.283       .  A
O406        C407   1.282       .  A
C407        C608   1.429       .  S
O408       Zr409   2.440       .  S
O408        H437   0.991       .  S
Zr409       O412   2.437       .  S
Zr409       O413   2.439       .  S
Zr409       O414   2.442       .  S
O410        C415   1.281       .  A
O411        H428   0.990       .  S
O411        H443   0.990       .  S
O412        H429   0.990       .  S
O413        H433   0.991       .  S
O413        H442   0.988       .  S
O414        C415   1.286       .  A
O416        H435   0.990       .  S
O416        H439   0.990       .  S
O417        H431   0.990       .  S
O417        H438   0.990       .  S
O418        C422   1.283       .  A
O419        C422   1.282       .  A
O420        H430   0.990       .  S
O421        H434   0.990       .  S
C422        C594   1.427       .  S
C445        C453   1.447       .  S
C445        C446   1.402       .  A
C445        C450   1.403       .  A
C446        C447   1.402       .  A
C446        H455   1.083       .  S
C447        C448   1.403       .  A
C447        H456   1.083       .  S
C448        C451   1.447       .  S
C448        C449   1.402       .  A
C449        C450   1.402       .  A
C449        H457   1.083       .  S
C450        H458   1.083       .  S
C451        C452   1.210       .  T
C453        C454   1.210       .  T
C459        C467   1.447       .  S
C459        C460   1.403       .  A
C459        C464   1.402       .  A
C460        C461   1.403       .  A
C460        H469   1.083       .  S
C461        C462   1.403   1_556  A
C461        H470   1.083       .  S
C462        C465   1.448       .  S
C462        C463   1.402       .  A
C463        C464   1.401   1_554  A
C463        H471   1.083       .  S
C464        H472   1.083       .  S
C465        C466   1.211       .  T
C467        C468   1.210       .  T
C473        C481   1.442       .  S
C473        C474   1.403       .  A
C473        C478   1.400       .  A
C474        C475   1.401       .  A
C474        H483   1.083       .  S
C475        C476   1.401       .  A
C475        H484   1.083       .  S
C476        C479   1.442   1_554  S
C476        C477   1.402       .  A
C477        C478   1.399       .  A
C477        H485   1.084       .  S
C478        H486   1.083       .  S
C479        C480   1.207       .  T
C481        C482   1.207       .  T
C487        C495   1.449       .  S
C487        C488   1.402       .  A
C487        C492   1.403       .  A
C488        C489   1.403       .  A
C488        H497   1.083       .  S
C489        C490   1.404       .  A
C489        H498   1.083       .  S
C490        C493   1.452       .  S
C490        C491   1.403       .  A
C491        C492   1.403       .  A
C491        H499   1.083       .  S
C492        H500   1.083       .  S
C493        C494   1.213       .  T
C495        C496   1.211       .  T
C501        C509   1.445       .  S
C501        C502   1.401   1_554  A
C501        C506   1.403       .  A
C502        C503   1.400       .  A
C502        H511   1.083       .  S
C503        C504   1.402       .  A
C503        H512   1.083       .  S
C504        C507   1.446       .  S
C504        C505   1.403       .  A
C505        C506   1.402   1_556  A
C505        H513   1.083   1_556  S
C506        H514   1.084       .  S
C507        C508   1.210       .  T
C509        C510   1.209       .  T
C515        C523   1.446       .  S
C515        C516   1.403       .  A
C515        C520   1.402       .  A
C516        C517   1.402       .  A
C516        H525   1.084       .  S
C517        C518   1.402       .  A
C517        H526   1.083       .  S
C518        C521   1.447       .  S
C518        C519   1.403       .  A
C519        C520   1.401       .  A
C519        H527   1.084       .  S
C520        H528   1.083       .  S
C521        C522   1.210       .  T
C523        C524   1.210       .  T
C529        C537   1.432       .  S
C529        C530   1.400       .  A
C529        C534   1.400       .  A
C530        C531   1.396       .  A
C530        H539   1.083       .  S
C531        C532   1.400       .  A
C531        H540   1.084       .  S
C532        C535   1.432       .  S
C532        C533   1.400       .  A
C533        C534   1.396       .  A
C533        H541   1.084       .  S
C534        H542   1.084       .  S
C535        C536   1.201       .  T
C537        C538   1.201       .  T
C543        C551   1.435   1_556  S
C543        C544   1.402       .  A
C543        C548   1.400       .  A
C544        C545   1.399       .  A
C544        H553   1.084       .  S
C545        C546   1.401       .  A
C545        H554   1.084       .  S
C546        C549   1.434       .  S
C546        C547   1.400       .  A
C547        C548   1.396       .  A
C547        H555   1.084       .  S
C548        H556   1.084       .  S
C549        C550   1.202       .  T
C551        C552   1.203       .  T
C557        C565   1.432       .  S
C557        C558   1.401       .  A
C557        C562   1.399       .  A
C558        C559   1.396       .  A
C558        H567   1.084       .  S
C559        C560   1.399       .  A
C559        H568   1.083       .  S
C560        C563   1.432       .  S
C560        C561   1.401       .  A
C561        C562   1.395       .  A
C561        H569   1.084       .  S
C562        H570   1.084       .  S
C563        C564   1.201       .  T
C565        C566   1.201       .  T
C571        C579   1.434       .  S
C571        C572   1.401       .  A
C571        C576   1.400       .  A
C572        C573   1.397       .  A
C572        H581   1.083       .  S
C573        C574   1.400       .  A
C573        H582   1.084       .  S
C574        C577   1.434       .  S
C574        C575   1.400       .  A
C575        C576   1.396       .  A
C575        H583   1.084       .  S
C576        H584   1.084       .  S
C577        C578   1.202       .  T
C579        C580   1.203       .  T
C585        C593   1.433       .  S
C585        C586   1.400       .  A
C585        C590   1.400       .  A
C586        C587   1.395       .  A
C586        H595   1.084       .  S
C587        C588   1.399       .  A
C587        H596   1.084       .  S
C588        C591   1.435       .  S
C588        C589   1.402       .  A
C589        C590   1.398       .  A
C589        H597   1.083       .  S
C590        H598   1.084       .  S
C591        C592   1.203       .  T
C593        C594   1.202       .  T
C599        C607   1.434       .  S
C599        C600   1.399   1_556  A
C599        C604   1.402       .  A
C600        C601   1.394       .  A
C600        H609   1.084       .  S
C601        C602   1.399       .  A
C601        H610   1.084       .  S
C602        C605   1.435       .  S
C602        C603   1.403       .  A
C603        C604   1.400   1_554  A
C603        H611   1.083       .  S
C604        H612   1.083       .  S
C605        C606   1.203       .  T
C607        C608   1.202       .  T
C613        C621   1.435       .  S
C613        C614   1.401       .  A
C613        C618   1.400       .  A
C614        C615   1.398       .  A
C614        H623   1.083       .  S
C615        C616   1.400       .  A
C615        H624   1.083       .  S
C616        C619   1.435       .  S
C616        C617   1.401       .  A
C617        C618   1.397       .  A
C617        H625   1.084       .  S
C618        H626   1.084       .  S
C619        C620   1.203       .  T
C621        C622   1.203       .  T
C627        C635   1.435       .  S
C627        C628   1.399       .  A
C627        C632   1.401       .  A
C628        C629   1.397       .  A
C628        H637   1.083       .  S
C629        C630   1.403   1_554  A
C629        H638   1.084   1_554  S
C630        C633   1.437       .  S
C630        C631   1.399   1_556  A
C631        C632   1.397       .  A
C631        H639   1.083       .  S
C632        H640   1.084       .  S
C633        C634   1.204       .  T
C635        C636   1.203       .  T
C641        C649   1.436       .  S
C641        C642   1.401       .  A
C641        C646   1.400       .  A
C642        C643   1.397       .  A
C642        H651   1.084       .  S
C643        C644   1.401       .  A
C643        H652   1.084       .  S
C644        C647   1.439       .  S
C644        C645   1.402       .  A
C645        C646   1.399       .  A
C645        H653   1.083       .  S
C646        H654   1.084       .  S
C647        C648   1.205       .  T
C649        C650   1.204       .  T
C655        C663   1.433       .  S
C655        C656   1.400       .  A
C655        C660   1.400       .  A
C656        C657   1.397       .  A
C656        H665   1.084       .  S
C657        C658   1.401       .  A
C657        H666   1.084       .  S
C658        C661   1.433       .  S
C658        C659   1.400       .  A
C659        C660   1.396       .  A
C659        H667   1.084       .  S
C660        H668   1.084       .  S
C661        C662   1.202       .  T
C663        C664   1.202       .  T
C669        C677   1.438       .  S
C669        C670   1.403       .  A
C669        C674   1.400       .  A
C670        C671   1.399       .  A
C670        H679   1.084       .  S
C671        C672   1.401       .  A
C671        H680   1.083       .  S
C672        C675   1.440       .  S
C672        C673   1.402       .  A
C673        C674   1.398       .  A
C673        H681   1.084       .  S
C674        H682   1.083       .  S
C675        C676   1.206       .  T
C677        C678   1.205       .  T
C683        C691   1.438       .  S
C683        C684   1.400       .  A
C683        C688   1.402       .  A
C684        C685   1.399   1_554  A
C684        H693   1.083       .  S
C685        C686   1.402       .  A
C685        H694   1.083       .  S
C686        C689   1.440       .  S
C686        C687   1.401       .  A
C687        C688   1.399   1_556  A
C687        H695   1.083       .  S
C688        H696   1.084       .  S
C689        C690   1.206       .  T
C691        C692   1.205       .  T
C697        C705   1.438       .  S
C697        C698   1.400       .  A
C697        C702   1.402       .  A
C698        C699   1.398       .  A
C698        H707   1.083       .  S
C699        C700   1.401       .  A
C699        H708   1.084       .  S
C700        C703   1.438       .  S
C700        C701   1.401       .  A
C701        C702   1.399       .  A
C701        H709   1.083       .  S
C702        H710   1.083       .  S
C703        C704   1.204       .  T
C705        C706   1.205       .  T
C711        C719   1.437       .  S
C711        C712   1.401       .  A
C711        C716   1.401       .  A
C712        C713   1.399       .  A
C712        H721   1.083       .  S
C713        C714   1.401       .  A
C713        H722   1.083       .  S
C714        C717   1.437   1_556  S
C714        C715   1.401       .  A
C715        C716   1.397       .  A
C715        H723   1.084       .  S
C716        H724   1.084       .  S
C717        C718   1.204       .  T
C719        C720   1.204       .  T
C725        C733   1.439       .  S
C725        C726   1.401       .  A
C725        C730   1.401       .  A
C726        C727   1.398       .  A
C726        H735   1.084       .  S
C727        C728   1.400       .  A
C727        H736   1.084       .  S
C728        C731   1.438       .  S
C728        C729   1.402       .  A
C729        C730   1.399       .  A
C729        H737   1.083       .  S
C730        H738   1.083       .  S
C731        C732   1.205       .  T
C733        C734   1.205       .  T
C739        C747   1.439       .  S
C739        C740   1.402       .  A
C739        C744   1.401       .  A
C740        C741   1.400       .  A
C740        H749   1.083       .  S
C741        C742   1.402       .  A
C741        H750   1.083       .  S
C742        C745   1.439       .  S
C742        C743   1.401       .  A
C743        C744   1.397       .  A
C743        H751   1.084       .  S
C744        H752   1.084       .  S
C745        C746   1.206       .  T
C747        C748   1.205       .  T
C753        C761   1.442       .  S
C753        C754   1.399       .  A
C753        C758   1.404       .  A
C754        C755   1.397       .  A
C754        H763   1.083       .  S
C755        C756   1.401       .  A
C755        H764   1.084       .  S
C756        C759   1.441       .  S
C756        C757   1.402       .  A
C757        C758   1.402       .  A
C757        H765   1.083       .  S
C758        H766   1.083       .  S
C759        C760   1.206       .  T
C761        C762   1.207       .  T
C767        C775   1.436       .  S
C767        C768   1.400       .  A
C767        C772   1.401       .  A
C768        C769   1.399       .  A
C768        H777   1.084       .  S
C769        C770   1.403       .  A
C769        H778   1.083       .  S
C770        C773   1.439       .  S
C770        C771   1.401       .  A
C771        C772   1.398       .  A
C771        H779   1.084       .  S
C772        H780   1.084       .  S
C773        C774   1.206       .  T
C775        C776   1.203   1_554  T
