geometry optimzed in LAMMPS
_audit_creation_date              2020-11-30 
_audit_creation_method            'lammps2cif' 
_symmetry_space_group_name_H-M    'P1' 
_symmetry_Int_Tables_number       1 
_symmetry_cell_setting            triclinic 
loop_ 
_symmetry_equiv_pos_as_xyz 
  x,y,z 
_cell_length_a                    39.2594334 
_cell_length_b                    38.76966595801361 
_cell_length_c                    35.828169708299626 
_cell_angle_alpha                 88.66005786260635 
_cell_angle_beta                  86.92988152271751 
_cell_angle_gamma                 90.6125867138823 
loop_ 
_atom_site_label 
_atom_site_type_symbol 
_atom_site_fract_x 
_atom_site_fract_y 
_atom_site_fract_z 
_atom_site_charge 
C1          C  0.80675953  0.35564632  0.05672061     0.04100
C2          C  0.81807478  0.32145762  0.05804036    -0.12000
C3          C  0.85298695  0.31361827  0.05756917     0.01600
C4          C  0.88017883  0.34292434  0.55922194    -0.10600
C5          C  0.86928705  0.37768577  0.55755974     0.04100
C6          C  0.83398307  0.38414379  0.55669983    -0.10000
H7          H  0.79946005  0.30059219  0.05805972     0.09700
H8          H  0.90695939  0.33709835  0.55993899     0.07200
H9          H  0.82548283  0.41058708  0.55570515     0.07100
C10         C  0.83440350  0.37277115  0.16355096     0.04100
C11         C  0.83766398  0.33669833  0.16070462    -0.12000
C12         C  0.87003077  0.32152298  0.15629002     0.01600
C13         C  0.89912011  0.34319424  0.15227258    -0.10600
C14         C  0.89664174  0.37917245  0.15516395     0.04100
C15         C  0.86406602  0.39366072  0.16120355    -0.10000
H16         H  0.81522906  0.32020284  0.16415397     0.09700
H17         H  0.92409753  0.33216539  0.14722903     0.07200
H18         H  0.86148387  0.42110182  0.16508169     0.07100
C19         C  0.59942314  0.84150575  0.41748251     0.04100
C20         C  0.63400462  0.84951813  0.42356100    -0.12000
C21         C  0.64671712  0.88366014  0.41773631     0.01600
C22         C  0.62457963  0.90932779  0.40567298    -0.10600
C23         C  0.59006727  0.90236195  0.40094920     0.04100
C24         C  0.57785950  0.86826770  0.40628053    -0.10000
H25         H  0.65069821  0.82957741  0.43302969     0.09700
H26         H  0.63401320  0.93561145  0.40150117     0.07200
H27         H  0.55146819  0.86228140  0.40158034     0.07100
C28         C  0.57771604  0.83219662  0.28456999     0.04100
C29         C  0.55727642  0.86067121  0.29391024    -0.12000
C30         C  0.57126098  0.89436646  0.29386873     0.01600
C31         C  0.60658077  0.89885346  0.28658111    -0.10600
C32         C  0.62771578  0.87072277  0.27798575     0.04100
C33         C  0.61300647  0.83757269  0.27664891    -0.10000
H34         H  0.53039945  0.85623162  0.30063009     0.09700
H35         H  0.61737113  0.92470035  0.28601118     0.07200
H36         H  0.62938953  0.81601327  0.27016058     0.07100
O37         O  0.00457296  0.89432412  0.46527348    -0.77500
C38         C  0.89988629  0.93898784  0.47717938     0.83500
O39         O  0.99230836  0.00621171  0.39177449    -0.78600
O40         O  0.93538144  0.04503751  0.00846432    -0.80100
O41         O  0.00776081  0.96975385  0.06826480    -0.79900
O42         O  0.04008406  0.91496289  0.50599289    -0.78500
Zn43       Zn  0.97612698  0.93736822  0.45141973     1.55700
O44         O  0.95215579  0.98210177  0.06877820    -0.79900
Cd45       Cd  0.02335075  0.96421640  0.01234091     1.59700
Cd46       Cd  0.00088438  0.01821700  0.44640078     1.59600
O47         O  0.07000955  0.99789168  0.49704288    -0.79900
O48         O  0.98727814  0.97812699  0.48019110    -1.90400
Cd49       Cd  0.94325334  0.99146310  0.01290237     1.59900
O50         O  0.05221022  0.02974016  0.44937725    -0.79900
O51         O  0.89954326  0.96407102  0.99880993    -0.78500
C52         C  0.98586660  0.97765653  0.37647805     0.84000
C53         C  0.02877685  0.88995677  0.48744755     0.83700
O54         O  0.92596335  0.92555685  0.46076100    -0.77500
C55         C  0.97918066  0.97540864  0.08571398     0.84500
O56         O  0.98124553  0.94953226  0.39553050    -0.77600
C57         C  0.07544945  0.02075052  0.47098086     0.84600
C58         C  0.95236082  0.07035545  0.48637317     0.84900
O59         O  0.97533971  0.06320362  0.46130430    -0.80000
O60         O  0.97295128  0.95027920  0.32024025    -0.77500
C61         C  0.88552654  0.94812700  0.24761512     0.83500
O62         O  0.01731925  0.90300446  0.20619234    -0.78600
O63         O  0.95026059  0.98344695  0.14482049    -0.80100
O64         O  0.97417062  0.06074719  0.24483163    -0.79900
O65         O  0.99121416  0.00499265  0.31663921    -0.78500
Zn66       Zn  0.96040389  0.93951015  0.26743146     1.55700
O67         O  0.93453574  0.04640465  0.20527654    -0.79900
Cd68       Cd  0.99710307  0.01458014  0.25944835     1.59700
Cd69       Cd  0.01430640  0.95605486  0.19848254     1.59600
O70         O  0.04956980  0.01968453  0.24793428    -0.79900
O71         O  0.97721335  0.97542171  0.23198546    -1.90400
Cd72       Cd  0.93887910  0.99263931  0.20133104     1.59900
O73         O  0.06156280  0.97786037  0.20785020    -0.79900
O74         O  0.89223740  0.96889211  0.21983699    -0.78500
C75         C  0.00136583  0.88208251  0.22908814     0.84000
C76         C  0.98331323  0.97753258  0.33561453     0.83700
O77         O  0.90891651  0.93646675  0.26760918    -0.77500
C78         C  0.95061391  0.06900187  0.22318733     0.84500
O79         O  0.97925034  0.89254270  0.25350902    -0.77600
C80         C  0.07093980  0.00270643  0.22776350     0.84600
C81         C  0.97764213  0.97452811  0.12683625     0.84900
O82         O  0.00414430  0.96519162  0.14327184    -0.80000
C83         C  0.13390489  0.58105665  0.51864018     0.04100
C84         C  0.10996997  0.55499127  0.52969976    -0.12000
C85         C  0.07491162  0.56148818  0.53418709     0.01600
C86         C  0.06369758  0.59556660  0.52866315    -0.10600
C87         C  0.08688631  0.62279459  0.51822871     0.04100
C88         C  0.12213856  0.61513120  0.51302690    -0.10000
H89         H  0.11868723  0.52880148  0.53386375     0.09700
H90         H  0.03682433  0.60115526  0.53274930     0.07200
H91         H  0.14008353  0.63511769  0.50346159     0.07100
C92         C  0.14479119  0.58877732  0.18138041     0.04100
C93         C  0.11880045  0.56438063  0.17478136    -0.12000
C94         C  0.08488388  0.57541193  0.17031688     0.01600
C95         C  0.07755124  0.61076527  0.17295836    -0.10600
C96         C  0.10286085  0.63512205  0.18038728     0.04100
C97         C  0.13631013  0.62381901  0.18389778    -0.10000
H98         H  0.12520786  0.53752479  0.17174468     0.09700
H99         H  0.05189656  0.61922800  0.16848627     0.07200
H100        H  0.15607669  0.64263513  0.18896498     0.07100
C101        C  0.33172337  0.09529017  0.43277207     0.04100
C102        C  0.34248254  0.12978984  0.43773068    -0.12000
C103        C  0.37670729  0.14009765  0.42817938     0.01600
C104        C  0.39981068  0.11529453  0.41413328    -0.10600
C105        C  0.38947534  0.08092051  0.40948207     0.04100
C106        C  0.35541424  0.07163104  0.41814161    -0.10000
H107        H  0.32482271  0.14794690  0.45011568     0.09700
H108        H  0.42596460  0.12295159  0.40687298     0.07200
H109        H  0.34750627  0.04505153  0.41467531     0.07100
C110        C  0.31649177  0.09837259  0.28124920     0.04100
C111        C  0.33995532  0.07158585  0.28529340    -0.12000
C112        C  0.37522708  0.07841451  0.28561080     0.01600
C113        C  0.38704683  0.11294345  0.28163200    -0.10600
C114        C  0.36377989  0.14022378  0.27779394     0.04100
C115        C  0.32870139  0.13246426  0.27839340    -0.10000
H116        H  0.33087301  0.04518599  0.28872288     0.09700
H117        H  0.41402427  0.11845017  0.28121304     0.07200
H118        H  0.31065623  0.15319610  0.27534663     0.07100
O119        O  0.43037037  0.43001957  0.44161873    -0.77500
C120        C  0.39938676  0.53366852  0.47806121     0.83500
O121        O  0.51449101  0.48778904  0.37637996    -0.78600
O122        O  0.50032009  0.57236271  0.98301895    -0.80100
O123        O  0.48094337  0.45522922  0.05251538    -0.79900
O124        O  0.46225703  0.40334566  0.98015578    -0.78500
Zn125      Zn  0.44438413  0.48086196  0.43535590     1.55700
O126        O  0.48024500  0.51295215  0.05341022    -0.79900
Cd127      Cd  0.49146985  0.44576827  0.99616371     1.59700
Cd128      Cd  0.52513384  0.49947155  0.43074952     1.59600
O129        O  0.54404919  0.43492623  0.99255167    -0.79900
O130        O  0.48411935  0.48950717  0.46467303    -1.90400
Cd131      Cd  0.47082557  0.52811375  0.99871173     1.59900
O132        O  0.56715708  0.47212546  0.44771941    -0.79900
O133        O  0.42435389  0.54392755  0.49661151    -0.78500
C134        C  0.48614111  0.48783892  0.36055417     0.84000
C135        C  0.44036627  0.40339529  0.45945191     0.83700
O136        O  0.40328621  0.51044686  0.45338014    -0.77500
C137        C  0.48109980  0.48348327  0.07009391     0.84500
O138        O  0.45748925  0.48892958  0.37931833    -0.77600
C139        C  0.57159041  0.44883550  0.47268487     0.84600
C140        C  0.52883251  0.57713964  0.45091313     0.84900
O141        O  0.53832601  0.55168197  0.43111431    -0.80000
O142        O  0.40887802  0.47135287  0.19405986    -0.77500
C143        C  0.48352202  0.48224151  0.11089511     0.83500
O144        O  0.49644213  0.40243507  0.24862744    -0.78600
O145        O  0.56691539  0.48164265  0.17477958    -0.80100
O146        O  0.48539646  0.56515408  0.23854174    -0.79900
O147        O  0.41047322  0.51706020  0.23063784    -0.78500
Zn148      Zn  0.45711992  0.45339383  0.18672988     1.55700
O149        O  0.52651721  0.55667815  0.19424012    -0.79900
Cd150      Cd  0.46175531  0.51610668  0.24533050     1.59700
Cd151      Cd  0.51592535  0.45242457  0.24763292     1.59600
O152        O  0.46387726  0.50223458  0.30190641    -0.79900
O153        O  0.48785865  0.48152491  0.21454654    -1.90400
Cd154      Cd  0.51984599  0.50622135  0.17830609     1.59900
O155        O  0.51075568  0.46985955  0.30241465    -0.79900
O156        O  0.50069763  0.50583638  0.12575083    -0.78500
C157        C  0.47382181  0.38729458  0.23043913     0.84000
C158        C  0.39410164  0.49634905  0.21057203     0.83700
O159        O  0.46897557  0.45768799  0.13036601    -0.77500
C160        C  0.51104828  0.57600759  0.21779200     0.84500
O161        O  0.45739006  0.40321618  0.20557462    -0.77600
C162        C  0.48685122  0.48650007  0.31941100     0.84600
C163        C  0.58184882  0.46091176  0.19657413     0.84900
O164        O  0.56706858  0.44931601  0.22707874    -0.80000
C165        C  0.41428263  0.22603333  0.25414696     0.19700
C166        C  0.44759376  0.23831380  0.25835702    -0.18400
C167        C  0.45652069  0.27277811  0.24961620    -0.10700
C168        C  0.43224526  0.29583716  0.23616775     0.21900
C169        C  0.39912747  0.28334476  0.23124946    -0.20000
C170        C  0.39017968  0.24895230  0.24012765    -0.10900
C171        C  0.44055345  0.33265915  0.22592850    -0.15000
C172        C  0.46685159  0.35027729  0.23931581    -0.28900
C173        C  0.40606795  0.18886033  0.26254967    -0.03200
C174        C  0.37421132  0.17728031  0.27226938    -0.39700
H175        H  0.46684454  0.22112390  0.26840333     0.13100
H176        H  0.48262832  0.28088327  0.25270317     0.12700
H177        H  0.38004043  0.30028561  0.22040224     0.12100
H178        H  0.36460075  0.24031536  0.23501471     0.12400
H179        H  0.42339471  0.34621694  0.20798968     0.15100
H180        H  0.48313484  0.33785040  0.25897565     0.13900
H181        H  0.42702652  0.17093401  0.26043263     0.11600
H182        H  0.35397133  0.19602242  0.27528131     0.13600
C183        C  0.41674784  0.30512517  0.46047360     0.19700
C184        C  0.43513296  0.27494280  0.46737020    -0.18400
C185        C  0.42113385  0.24223821  0.46135619    -0.10700
C186        C  0.38811342  0.23866621  0.44818789     0.21900
C187        C  0.36934354  0.26879597  0.44213382    -0.20000
C188        C  0.38341989  0.30159600  0.44804872    -0.10900
C189        C  0.37218374  0.20404560  0.44179914    -0.15000
C190        C  0.39070599  0.17555979  0.43437649    -0.28900
C191        C  0.43309037  0.33937457  0.46758297    -0.03200
C192        C  0.42271578  0.36989966  0.45350080    -0.39700
H193        H  0.46059084  0.27664055  0.47750080     0.13100
H194        H  0.43613491  0.21987015  0.46783970     0.12700
H195        H  0.34366587  0.26696864  0.43264162     0.12100
H196        H  0.36780792  0.32392334  0.44341044     0.12400
H197        H  0.34458312  0.20255844  0.44184132     0.15100
H198        H  0.41825293  0.17834057  0.43152002     0.13900
H199        H  0.45561257  0.33922384  0.48394492     0.11600
H200        H  0.40130019  0.37060862  0.43562422     0.13600
C201        C  0.23116446  0.54395892  0.20121171     0.19700
C202        C  0.24459127  0.51053339  0.19946521    -0.18400
C203        C  0.27928825  0.50465100  0.20482848    -0.10700
C204        C  0.30149370  0.53216961  0.21240119     0.21900
C205        C  0.28781622  0.56536595  0.21528280    -0.20000
C206        C  0.25325567  0.57125179  0.20981337    -0.10900
C207        C  0.33864143  0.52738067  0.21859058    -0.15000
C208        C  0.35697506  0.50057366  0.20553855    -0.28900
C209        C  0.19396304  0.54939865  0.19543223    -0.03200
C210        C  0.18160790  0.58014109  0.18439461    -0.39700
H211        H  0.22818718  0.48886217  0.19374212     0.13100
H212        H  0.28835172  0.47844453  0.20363736     0.12700
H213        H  0.30400565  0.58698208  0.22176587     0.12100
H214        H  0.24396914  0.59720037  0.21318408     0.12400
H215        H  0.35170609  0.54751780  0.23308277     0.15100
H216        H  0.34476217  0.48118649  0.18928406     0.13900
H217        H  0.17657099  0.52765027  0.20057983     0.11600
H218        H  0.19950781  0.60131400  0.17844748     0.13600
C219        C  0.30106882  0.55245192  0.48156595     0.19700
C220        C  0.27228698  0.53339249  0.47189711    -0.18400
C221        C  0.23907882  0.54537374  0.47963598    -0.10700
C222        C  0.23343318  0.57702991  0.49740965     0.21900
C223        C  0.26218420  0.59653387  0.50640145    -0.20000
C224        C  0.29551254  0.58444275  0.49879614    -0.10900
C225        C  0.19809445  0.59075743  0.50563966    -0.15000
C226        C  0.17023364  0.56998014  0.51106441    -0.28900
C227        C  0.33599739  0.53817886  0.47221624    -0.03200
C228        C  0.36528095  0.54946844  0.48636982    -0.39700
H229        H  0.27547591  0.50895643  0.45814987     0.13100
H230        H  0.21795556  0.52996653  0.47086452     0.12700
H231        H  0.25885432  0.62123245  0.51955253     0.12100
H232        H  0.31667224  0.60058378  0.50599023     0.12400
H233        H  0.19541468  0.61839298  0.50857755     0.15100
H234        H  0.17421602  0.54232898  0.51085417     0.13900
H235        H  0.33743269  0.51636892  0.45371104     0.11600
H236        H  0.36445909  0.57021076  0.50615089     0.13600
C237        C  0.22826760  0.05635403  0.26313757     0.19700
C238        C  0.21838388  0.02883912  0.24116373    -0.18400
C239        C  0.18392654  0.02173473  0.23612669    -0.10700
C240        C  0.15818337  0.04205548  0.25312454     0.21900
C241        C  0.16808786  0.06948861  0.27530957    -0.20000
C242        C  0.20260458  0.07656293  0.28038896    -0.10900
C243        C  0.12090607  0.03480587  0.25009295    -0.15000
C244        C  0.10788320  0.01113918  0.22756506    -0.28900
C245        C  0.26546277  0.06232802  0.26770939    -0.03200
C246        C  0.27902529  0.09196339  0.27969866    -0.39700
H247        H  0.23748795  0.01261012  0.22778188     0.13100
H248        H  0.17797122  0.99991874  0.21937959     0.12700
H249        H  0.14897029  0.08537692  0.28917350     0.12100
H250        H  0.20881018  0.09743219  0.29840702     0.12400
H251        H  0.10329835  0.04933139  0.26793500     0.15100
H252        H  0.12446384  0.99649829  0.20890969     0.13900
H253        H  0.28249514  0.04198166  0.25852560     0.11600
H254        H  0.26246198  0.11350893  0.28594248     0.13600
C255        C  0.05710178  0.72342874  0.19430125     0.19700
C256        C  0.02507641  0.73316441  0.20979827    -0.18400
C257        C  0.01663020  0.76799377  0.21321489    -0.10700
C258        C  0.04014409  0.79409775  0.20115228     0.21900
C259        C  0.07187647  0.78442846  0.18496000    -0.20000
C260        C  0.08034842  0.74960899  0.18155611    -0.10900
C261        C  0.03223859  0.83154451  0.20357068    -0.15000
C262        C  0.00827761  0.84461478  0.22748804    -0.28900
C263        C  0.06448682  0.68584247  0.19103345    -0.03200
C264        C  0.09579223  0.67279649  0.18329513    -0.39700
H265        H  0.00638218  0.71368578  0.21927649     0.13100
H266        H  0.99145928  0.77420579  0.22465858     0.12700
H267        H  0.09028108  0.80396135  0.17486683     0.12100
H268        H  0.10488443  0.74363439  0.16835249     0.12400
H269        H  0.04766580  0.84923658  0.18558028     0.15100
H270        H  0.99360315  0.82770974  0.24697288     0.13900
H271        H  0.04309898  0.66823526  0.19673331     0.11600
H272        H  0.11770525  0.69006998  0.18051780     0.13600
C273        C  0.23502326  0.08248171  0.46267317     0.19700
C274        C  0.20493693  0.09951045  0.45413956    -0.18400
C275        C  0.17294381  0.08348118  0.46121415    -0.10700
C276        C  0.17021639  0.04993686  0.47730660     0.21900
C277        C  0.20020939  0.03357941  0.48742595    -0.20000
C278        C  0.23218892  0.04953373  0.48019622    -0.10900
C279        C  0.13664028  0.03161577  0.48457637    -0.15000
C280        C  0.10914393  0.03835938  0.46476118    -0.28900
C281        C  0.26886740  0.09956163  0.45295790    -0.03200
C282        C  0.29703087  0.08114510  0.44436883    -0.39700
H283        H  0.20621124  0.12511596  0.44134262     0.13100
H284        H  0.15046149  0.09766555  0.45434944     0.12700
H285        H  0.19894474  0.00811576  0.50057097     0.12100
H286        H  0.25458654  0.03603197  0.48866396     0.12400
H287        H  0.13493684  0.01108934  0.50579406     0.15100
H288        H  0.11121845  0.05751778  0.44216404     0.13900
H289        H  0.26989307  0.12749648  0.45041173     0.11600
H290        H  0.29432755  0.05324778  0.44424286     0.13600
C291        C  0.07504699  0.72304719  0.50012412     0.19700
C292        C  0.09441368  0.75297931  0.50620320    -0.18400
C293        C  0.08135908  0.78614053  0.49975181    -0.10700
C294        C  0.04832393  0.79052729  0.48679979     0.21900
C295        C  0.02923383  0.76058672  0.47997652    -0.20000
C296        C  0.04225467  0.72741704  0.48653498    -0.10900
C297        C  0.03310028  0.82548296  0.47931116    -0.15000
C298        C  0.04474552  0.85542573  0.49297441    -0.28900
C299        C  0.09052564  0.68810818  0.50695363    -0.03200
C300        C  0.07236327  0.65817334  0.51143429    -0.39700
H301        H  0.11992121  0.75073033  0.51605693     0.13100
H302        H  0.09761607  0.80811031  0.50442907     0.12700
H303        H  0.00395542  0.76283595  0.46951002     0.12100
H304        H  0.02664978  0.70540412  0.48020219     0.12400
H305        H  0.01050092  0.82635262  0.46310058     0.15100
H306        H  0.06622539  0.85487151  0.51075268     0.13900
H307        H  0.11788942  0.68754986  0.50962203     0.11600
H308        H  0.04480204  0.65943632  0.51120284     0.13600
C309        C  0.45318518  0.01809741  0.29869340     0.19700
C310        C  0.48870182  0.02143336  0.29229476    -0.18400
C311        C  0.50964250  0.99233071  0.29246134    -0.10700
C312        C  0.49547943  0.95910429  0.29952296     0.21900
C313        C  0.46010417  0.95596182  0.30696505    -0.20000
C314        C  0.43924729  0.98499711  0.30693652    -0.10900
C315        C  0.51602262  0.92693906  0.29707410    -0.15000
C316        C  0.55015473  0.92588352  0.29994190    -0.28900
C317        C  0.43151480  0.04950582  0.29666333    -0.03200
C318        C  0.39832651  0.04815983  0.28852102    -0.39700
H319        H  0.50021774  0.04658612  0.28618541     0.13100
H320        H  0.53663812  0.99602928  0.28586194     0.12700
H321        H  0.44847925  0.93081950  0.31286022     0.12100
H322        H  0.41227719  0.98126816  0.31372190     0.12400
H323        H  0.50205738  0.90342918  0.29194543     0.15100
H324        H  0.56378600  0.94953064  0.30550263     0.13900
H325        H  0.44371241  0.07418300  0.30105212     0.11600
H326        H  0.38695517  0.02321735  0.28337811     0.13600
C327        C  0.52909786  0.66942722  0.25031391     0.19700
C328        C  0.51092171  0.69438569  0.27081638    -0.18400
C329        C  0.52461499  0.72761928  0.27501623    -0.10700
C330        C  0.55718443  0.73666887  0.25898409     0.21900
C331        C  0.57539082  0.71156255  0.23879840    -0.20000
C332        C  0.56177885  0.67843837  0.23469229    -0.10900
C333        C  0.57332085  0.77167704  0.26176786    -0.15000
C334        C  0.56119877  0.79727146  0.28357160    -0.28900
C335        C  0.51374056  0.63413974  0.24682423    -0.03200
C336        C  0.52438863  0.61178380  0.22046269    -0.39700
H337        H  0.48583404  0.68823325  0.28342814     0.13100
H338        H  0.50930421  0.74593908  0.29051342     0.12700
H339        H  0.60057170  0.71749942  0.22629152     0.12100
H340        H  0.57742822  0.65996695  0.21980183     0.12400
H341        H  0.59639254  0.77656925  0.24432044     0.15100
H342        H  0.53762871  0.79341133  0.30034467     0.13900
H343        H  0.49283399  0.62644498  0.26645974     0.11600
H344        H  0.54438009  0.61946166  0.19981614     0.13600
C345        C  0.72030316  0.90822590  0.27000863     0.19700
C346        C  0.74145218  0.92386958  0.29526806    -0.18400
C347        C  0.77517858  0.93324230  0.28451794    -0.10700
C348        C  0.78848383  0.92769036  0.24791324     0.21900
C349        C  0.76722333  0.91244837  0.22244250    -0.20000
C350        C  0.73359384  0.90248912  0.23340937    -0.10900
C351        C  0.82392227  0.93882138  0.23547038    -0.15000
C352        C  0.84992112  0.93736171  0.25849809    -0.28900
C353        C  0.68387912  0.90094994  0.28187804    -0.03200
C354        C  0.66478713  0.87584615  0.26754128    -0.39700
H355        H  0.73174156  0.92909314  0.32342569     0.13100
H356        H  0.79048932  0.94574469  0.30462365     0.12700
H357        H  0.77667880  0.90823874  0.19397442     0.12100
H358        H  0.71776622  0.89138112  0.21287321     0.12400
H359        H  0.82898866  0.94691570  0.20644601     0.15100
H360        H  0.84531173  0.92644796  0.28653888     0.13900
H361        H  0.67263032  0.91648658  0.30406818     0.11600
H362        H  0.67674234  0.85798521  0.24810413     0.13600
C363        C  0.46882454  0.02211936  0.39825137     0.19700
C364        C  0.50439672  0.02643022  0.39421073    -0.18400
C365        C  0.52596507  0.99782322  0.39361350    -0.10700
C366        C  0.51236354  0.96402353  0.39728954     0.21900
C367        C  0.47677684  0.95978308  0.40076967    -0.20000
C368        C  0.45526230  0.98832585  0.40125818    -0.10900
C369        C  0.53400695  0.93277603  0.40110250    -0.15000
C370        C  0.56772883  0.93196491  0.39173605    -0.28900
C371        C  0.44694287  0.05314612  0.40316856    -0.03200
C372        C  0.41329301  0.05312915  0.39726047    -0.39700
H373        H  0.51560425  0.05210778  0.39239212     0.13100
H374        H  0.55316545  0.00260693  0.39184249     0.12700
H375        H  0.46551201  0.93418744  0.40402819     0.12100
H376        H  0.42813795  0.98362977  0.40561633     0.12400
H377        H  0.52158761  0.90993074  0.41377192     0.15100
H378        H  0.58027942  0.95473114  0.37910332     0.11100
H379        H  0.45879232  0.07596043  0.41402616     0.11600
H380        H  0.40183448  0.03035608  0.38584265     0.13600
C381        C  0.58358163  0.74194294  0.43497824     0.19700
C382        C  0.59765462  0.71139602  0.94266846    -0.18400
C383        C  0.58645725  0.67894909  0.43273247    -0.10700
C384        C  0.55319616  0.67538591  0.44940889     0.21900
C385        C  0.53564229  0.70556825  0.45914804    -0.20000
C386        C  0.55049035  0.73833600  0.45205043    -0.10900
C387        C  0.53640330  0.64095790  0.45847292    -0.15000
C388        C  0.54580669  0.61119703  0.44217629    -0.28900
C389        C  0.60080706  0.77646098  0.42783555    -0.03200
C390        C  0.58362799  0.80632457  0.42437388    -0.39700
H391        H  0.62401381  0.71320860  0.93214407     0.13100
H392        H  0.59817525  0.65621116  0.94361662     0.12700
H393        H  0.51024707  0.70380930  0.47250141     0.12100
H394        H  0.53614845  0.76063839  0.46087307     0.12400
H395        H  0.51469217  0.64033452  0.47861552     0.15100
H396        H  0.56628374  0.61154871  0.42061973     0.13900
H397        H  0.62376311  0.77659602  0.94042333     0.11600
H398        H  0.55597691  0.80508192  0.42536930     0.13600
C399        C  0.73825550  0.89329817  0.45438318     0.19700
C400        C  0.76595046  0.87164600  0.46049392    -0.18400
C401        C  0.79774512  0.88541952  0.46903701    -0.10700
C402        C  0.80251859  0.92132799  0.47209620     0.21900
C403        C  0.77446597  0.94284922  0.46730618    -0.20000
C404        C  0.74280100  0.92911352  0.45844954    -0.10900
C405        C  0.83606454  0.93719750  0.48065888    -0.15000
C406        C  0.86627033  0.92236267  0.47195690    -0.28900
C407        C  0.70459013  0.87790748  0.44545830    -0.03200
C408        C  0.68236424  0.89502307  0.42458486    -0.39700
H409        H  0.76304804  0.84395863  0.45835813     0.13100
H410        H  0.81830331  0.86776797  0.47377417     0.12700
H411        H  0.77712588  0.97049479  0.47010792     0.12100
H412        H  0.72178556  0.94662278  0.45549883     0.12400
H413        H  0.83596881  0.96287689  0.49218946     0.15100
H414        H  0.86673480  0.89782214  0.45800022     0.13900
H415        H  0.69827218  0.85220302  0.45645977     0.11600
H416        H  0.69015837  0.92018695  0.41296533     0.13600
C417        C  0.02362873  0.49595189  0.16008019     0.19700
C418        C  0.02099680  0.46257502  0.17620757    -0.18400
C419        C  0.99154773  0.44223035  0.17312771    -0.10700
C420        C  0.96386440  0.45468450  0.15349826     0.21900
C421        C  0.96659904  0.48786881  0.13700940    -0.20000
C422        C  0.99617139  0.50805388  0.13971285    -0.10900
C423        C  0.93129454  0.43462297  0.15105393    -0.15000
C424        C  0.92906965  0.39992161  0.15498075    -0.28900
C425        C  0.05498465  0.51734355  0.16575424    -0.03200
C426        C  0.05581330  0.55205245  0.16177012    -0.39700
H427        H  0.04156046  0.45242674  0.19203085     0.13100
H428        H  0.99030320  0.41721474  0.18714804     0.12700
H429        H  0.94586447  0.49811086  0.12150907     0.12100
H430        H  0.99725067  0.53292418  0.12543289     0.12400
H431        H  0.90874360  0.44911434  0.14480159     0.15100
H432        H  0.95237612  0.38554596  0.15788217     0.13900
H433        H  0.07702608  0.50423329  0.17599822     0.11600
H434        H  0.03279228  0.56490988  0.15396769     0.13600
C435        C  0.91579124  0.15691185  0.18775406     0.19700
C436        C  0.88547027  0.16852412  0.17268489    -0.18400
C437        C  0.87995913  0.20390266  0.16623884    -0.10700
C438        C  0.90495523  0.22856274  0.17445118     0.21900
C439        C  0.93559528  0.21672310  0.18850534    -0.20000
C440        C  0.94103603  0.18154467  0.19496445    -0.10900
C441        C  0.90076296  0.26674981  0.16962931    -0.15000
C442        C  0.87287314  0.28298404  0.15757078    -0.28900
C443        C  0.92098101  0.11906113  0.19422208    -0.03200
C444        C  0.94297093  0.10625952  0.21863205    -0.39700
H445        H  0.86578951  0.15015208  0.16621319     0.13100
H446        H  0.85611451  0.21153483  0.15500829     0.12700
H447        H  0.95560256  0.23486224  0.19464452     0.12100
H448        H  0.96536225  0.17387707  0.20504423     0.12400
H449        H  0.92181344  0.28244521  0.17832278     0.15100
H450        H  0.85064686  0.26809370  0.15073184     0.13900
H451        H  0.90610117  0.10123425  0.17850971     0.11600
H452        H  0.95685573  0.12373601  0.23568019     0.13600
C453        C  0.67234980  0.42065422  0.19492742     0.19700
C454        C  0.69924415  0.42169826  0.21923175    -0.18400
C455        C  0.73140405  0.40852743  0.20860118    -0.10700
C456        C  0.73723898  0.39321792  0.17360696     0.21900
C457        C  0.71016296  0.39162525  0.14955022    -0.20000
C458        C  0.67821530  0.40554079  0.15982677    -0.10900
C459        C  0.77056422  0.37699063  0.16251776    -0.15000
C460        C  0.80084410  0.38915917  0.17308873    -0.28900
C461        C  0.63797210  0.43346063  0.20776410    -0.03200
C462        C  0.61676914  0.44941184  0.18468803    -0.39700
H463        H  0.69532960  0.43273492  0.24660445     0.13100
H464        H  0.75134339  0.40940135  0.22829396     0.12700
H465        H  0.71376207  0.37954061  0.12270514     0.12100
H466        H  0.65784659  0.40350608  0.14075673     0.12400
H467        H  0.77017399  0.35523719  0.14397379     0.15100
H468        H  0.80130887  0.41292648  0.18852794     0.13900
H469        H  0.63041636  0.43065051  0.23730913     0.11600
H470        H  0.62536236  0.45451386  0.15573759     0.13600
C471        C  0.95011132  0.43963318  0.55149647     0.19700
C472        C  0.98396593  0.43783652  0.56235894    -0.18400
C473        C  0.00621719  0.46652881  0.55824160    -0.10700
C474        C  0.99533305  0.49808908  0.54268198     0.21900
C475        C  0.96148405  0.49975583  0.53169870    -0.20000
C476        C  0.93925668  0.47110850  0.53588264    -0.10900
C477        C  0.01813405  0.52950712  0.53615166    -0.15000
C478        C  0.05134210  0.53151247  0.54453422    -0.28900
C479        C  0.92760794  0.40786711  0.55537880    -0.03200
C480        C  0.89309399  0.40852175  0.55553110    -0.39700
H481        H  0.99327731  0.41405764  0.57434443     0.13100
H482        H  0.03180273  0.46345009  0.56730772     0.12700
H483        H  0.95218765  0.52335458  0.51928931     0.12100
H484        H  0.91389856  0.47370784  0.52590508     0.12400
H485        H  0.00718726  0.55155488  0.52216066     0.15100
H486        H  0.06298464  0.50935625  0.55739667     0.13900
H487        H  0.94025631  0.38338135  0.55876770     0.11600
H488        H  0.88099078  0.43348540  0.55413676     0.13600
C489        C  0.90170099  0.22767982  0.53984489     0.19700
C490        C  0.92951982  0.21838593  0.51594276    -0.18400
C491        C  0.93672264  0.18366649  0.50891320    -0.10700
C492        C  0.91430789  0.15553352  0.02514855     0.21900
C493        C  0.88883675  0.16509780  0.05193149    -0.20000
C494        C  0.88146019  0.19996256  0.05809709    -0.10900
C495        C  0.92142780  0.11787387  0.01981660    -0.15000
C496        C  0.94315082  0.10734317  0.49069024    -0.28900
C497        C  0.89456321  0.26545951  0.54478491    -0.03200
C498        C  0.86568459  0.27804301  0.56134420    -0.39700
H499        H  0.94577796  0.23818485  0.50231731     0.13100
H500        H  0.95875373  0.17814507  0.49075697     0.12700
H501        H  0.87445356  0.14544865  0.06819891     0.12100
H502        H  0.86189744  0.20584327  0.07928871     0.12400
H503        H  0.91107730  0.09977066  0.04122135     0.15100
H504        H  0.95444342  0.12529891  0.46980288     0.13900
H505        H  0.91289415  0.28369197  0.53156620     0.11600
H506        H  0.84271104  0.25803506  0.06711713     0.13600
C507        C  0.65321864  0.41018822  0.51416666     0.19700
C508        C  0.66168023  0.38021076  0.53436567    -0.18400
C509        C  0.69569519  0.37340268  0.54243163    -0.10700
C510        C  0.72221200  0.39674985  0.53074111     0.21900
C511        C  0.71346173  0.42702851  0.51130477    -0.20000
C512        C  0.67962283  0.43373998  0.50321241    -0.10900
C513        C  0.75925147  0.39107287  0.53738260    -0.15000
C514        C  0.77221919  0.36296597  0.55438961    -0.28900
C515        C  0.61665529  0.41715465  0.50659210    -0.03200
C516        C  0.60725111  0.43795080  0.47821453    -0.39700
H517        H  0.63926874  0.36110725  0.04282508     0.13100
H518        H  0.69792085  0.34911229  0.05741942     0.12700
H519        H  0.73300420  0.44579985  0.50225866     0.12100
H520        H  0.67430384  0.45782717  0.48897637     0.12400
H521        H  0.77691591  0.41080266  0.52598331     0.15100
H522        H  0.75228672  0.34066039  0.06269891     0.13900
H523        H  0.59698983  0.40500182  0.52509872     0.11600
H524        H  0.62669326  0.44901490  0.45870701     0.13600
C525        C  0.80972477  0.35705673  0.55737147     0.04100
C526        C  0.82117308  0.32301705  0.56046174    -0.12000
C527        C  0.85610931  0.31538784  0.56050209     0.01600
C528        C  0.87715154  0.34098509  0.05722047    -0.10600
C529        C  0.86640287  0.37577060  0.05717922     0.04100
C530        C  0.83114016  0.38252675  0.05714494    -0.10000
H531        H  0.80264958  0.30202686  0.56127179     0.09700
H532        H  0.90391223  0.33501837  0.05753474     0.07200
H533        H  0.82280946  0.40902708  0.05754031     0.07100
C534        C  0.83646021  0.37540039  0.66850154     0.04100
C535        C  0.83928573  0.33934852  0.66506238    -0.12000
C536        C  0.87149761  0.32382393  0.66092882     0.01600
C537        C  0.90084245  0.34516563  0.65742039    -0.10600
C538        C  0.89876499  0.38117170  0.66036832     0.04100
C539        C  0.86633863  0.39598115  0.66662683    -0.10000
H540        H  0.81658888  0.32316432  0.66797931     0.09700
H541        H  0.92569326  0.33378169  0.65254012     0.07200
H542        H  0.86403522  0.42340262  0.67086898     0.07100
C543        C  0.59461304  0.84054755  0.92827175     0.04100
C544        C  0.62911526  0.84884553  0.93434503    -0.12000
C545        C  0.64188862  0.88277354  0.92722219     0.01600
C546        C  0.61987068  0.90800338  0.91393076    -0.10600
C547        C  0.58545598  0.90077049  0.90884956     0.04100
C548        C  0.57318029  0.86684908  0.91561309    -0.10000
H549        H  0.64576340  0.82927999  0.94467274     0.09700
H550        H  0.62938203  0.93414118  0.90872770     0.07200
H551        H  0.54688336  0.86058229  0.91078367     0.07100
C552        C  0.57675199  0.83938713  0.77445608     0.04100
C553        C  0.55656548  0.86746819  0.78574820    -0.12000
C554        C  0.57039832  0.90117820  0.78623434     0.01600
C555        C  0.60536132  0.90615259  0.77694005    -0.10600
C556        C  0.62630673  0.87841683  0.76638803     0.04100
C557        C  0.61172018  0.84523745  0.76479395    -0.10000
H558        H  0.53001266  0.86267857  0.79395151     0.09700
H559        H  0.61601899  0.93204440  0.77675157     0.07200
H560        H  0.62811477  0.82406404  0.75699622     0.07100
O561        O  0.00060869  0.89225721  0.96547182    -0.77500
C562        C  0.89663854  0.93745001  0.97871536     0.83500
O563        O  0.99008903  0.00453581  0.89233109    -0.78600
O564        O  0.93824228  0.04683100  0.50768351    -0.80100
O565        O  0.01078401  0.97215159  0.56753812    -0.79900
O566        O  0.03623155  0.91234999  0.00641248    -0.78500
Zn567      Zn  0.97257180  0.93565112  0.95165478     1.55700
O568        O  0.95493800  0.98349048  0.56758673    -0.79900
Cd569      Cd  0.02665362  0.96670405  0.51166583     1.59700
Cd570      Cd  0.99783739  0.01614420  0.94721657     1.59600
O571        O  0.06682307  0.99533056  0.99806938    -0.79900
O572        O  0.98405584  0.97606506  0.98090628    -1.90400
Cd573      Cd  0.94608572  0.99320477  0.51174496     1.59900
O574        O  0.04891917  0.02786112  0.95098659    -0.79900
O575        O  0.90237831  0.96586648  0.49698017    -0.78500
C576        C  0.98334012  0.97623777  0.87670534     0.84000
C577        C  0.02469064  0.88753531  0.98773890     0.83700
O578        O  0.92236683  0.92416987  0.96145119    -0.77500
C579        C  0.98195287  0.97720402  0.58474284     0.84500
O580        O  0.97794313  0.94809241  0.89557253    -0.77600
C581        C  0.07216203  0.01861147  0.97243828     0.84600
C582        C  0.94925489  0.06833324  0.98667535     0.84900
O583        O  0.97206232  0.06098413  0.96153608    -0.80000
O584        O  0.97120833  0.94957826  0.81969223    -0.77500
C585        C  0.88596423  0.94877123  0.74394141     0.83500
O586        O  0.01782726  0.90355192  0.70533026    -0.78600
O587        O  0.95246285  0.98492601  0.64351131    -0.80100
O588        O  0.97444773  0.06081183  0.74560550    -0.79900
O589        O  0.99024073  0.00403058  0.81711537    -0.78500
Zn590      Zn  0.96014008  0.93942202  0.76614181     1.55700
O591        O  0.93605761  0.04744059  0.70425726    -0.79900
Cd592      Cd  0.99726789  0.01438916  0.76001673     1.59700
Cd593      Cd  0.01517167  0.95660803  0.69819266     1.59600
O594        O  0.04998987  0.01923245  0.74951323    -0.79900
O595        O  0.97778064  0.97573982  0.73144141    -1.90400
Cd596      Cd  0.94039183  0.99371066  0.69987914     1.59900
O597        O  0.06223669  0.97786974  0.70890498    -0.79900
O598        O  0.89350702  0.97005805  0.71686465    -0.78500
C599        C  0.00181689  0.88238029  0.72788902     0.84000
C600        C  0.98155837  0.97652127  0.83566589     0.83700
O601        O  0.90868214  0.93648360  0.76447333    -0.77500
C602        C  0.95153146  0.06959524  0.72333292     0.84500
O603        O  0.97951732  0.89255312  0.75228882    -0.77600
C604        C  0.07149035  0.00234890  0.72937014     0.84600
C605        C  0.97999778  0.97602205  0.62586892     0.84900
O606        O  0.00619658  0.96640039  0.64268552    -0.80000
C607        C  0.13033868  0.57785078  0.00783162     0.04100
C608        C  0.10684097  0.55162651  0.01953577    -0.12000
C609        C  0.07196833  0.55803762  0.02593326     0.01600
C610        C  0.06045884  0.59211645  0.02133226    -0.10600
C611        C  0.08320321  0.61944132  0.01010563     0.04100
C612        C  0.11831277  0.61196021  0.00317036    -0.10000
H613        H  0.11576257  0.52542658  0.02300769     0.09700
H614        H  0.03374699  0.59771166  0.02687042     0.07200
H615        H  0.13583092  0.63216561  0.99307930     0.07100
C616        C  0.14693838  0.59279349  0.67663374     0.04100
C617        C  0.12223926  0.56777460  0.66770866    -0.12000
C618        C  0.08881754  0.57795952  0.65971652     0.01600
C619        C  0.08033987  0.61306615  0.66108278    -0.10600
C620        C  0.10411480  0.63800564  0.67115883     0.04100
C621        C  0.13726876  0.62760029  0.67821225    -0.10000
H622        H  0.12897433  0.54091304  0.66570393     0.09700
H623        H  0.05499938  0.62080533  0.65409493     0.07200
H624        H  0.15580239  0.64698110  0.68532978     0.07100
C625        C  0.32795659  0.09376442  0.93250946     0.04100
C626        C  0.33864747  0.12814443  0.93826357    -0.12000
C627        C  0.37290910  0.13858252  0.92926055     0.01600
C628        C  0.39615683  0.11400852  0.91496081    -0.10600
C629        C  0.38583463  0.07975816  0.90936105     0.04100
C630        C  0.35171048  0.07038125  0.91747910    -0.10000
H631        H  0.32095433  0.14609083  0.95100567     0.09700
H632        H  0.42237685  0.12175622  0.90823752     0.07200
H633        H  0.34381523  0.04389391  0.91339996     0.07100
C634        C  0.31773128  0.10371856  0.76788305     0.04100
C635        C  0.34022474  0.07721255  0.77688421    -0.12000
C636        C  0.37552068  0.08334317  0.77738946     0.01600
C637        C  0.38848539  0.11687861  0.76888062    -0.10600
C638        C  0.36626117  0.14412039  0.76053183     0.04100
C639        C  0.33100341  0.13706557  0.76046516    -0.10000
H640        H  0.33041178  0.05155716  0.78393427     0.09700
H641        H  0.41567131  0.12127459  0.76762016     0.07200
H642        H  0.31368525  0.15763398  0.75377711     0.07100
O643        O  0.42863523  0.42838156  0.93945620    -0.77500
C644        C  0.39549784  0.53092701  0.97620075     0.83500
O645        O  0.51392744  0.49150096  0.87752483    -0.78600
O646        O  0.50574037  0.57367935  0.47738247    -0.80100
O647        O  0.48403650  0.45900785  0.55252379    -0.79900
O648        O  0.46486168  0.40516052  0.48153282    -0.78500
Zn649      Zn  0.44252014  0.47946822  0.93423314     1.55700
O650        O  0.48671000  0.51677074  0.55170967    -0.79900
Cd651      Cd  0.49426859  0.44773582  0.49661761     1.59700
Cd652      Cd  0.52263375  0.50071147  0.93305685     1.59600
O653        O  0.54662089  0.43606469  0.49304787    -0.79900
O654        O  0.48108061  0.48828138  0.96529002    -1.90400
Cd655      Cd  0.47594201  0.53057985  0.49679810     1.59900
O656        O  0.56473598  0.47350834  0.94981332    -0.79900
O657        O  0.41931093  0.54083802  0.99657266    -0.78500
C658        C  0.48606132  0.49037927  0.86080521     0.84000
C659        C  0.43816911  0.40168169  0.95753706     0.83700
O660        O  0.40078239  0.50840231  0.95102880    -0.77500
C661        C  0.48599632  0.48762197  0.56926176     0.84500
O662        O  0.45697532  0.48904233  0.87876441    -0.77600
C663        C  0.56913106  0.44914442  0.97355184     0.84600
C664        C  0.52427476  0.57722958  0.95777009     0.84900
O665        O  0.53479845  0.55287332  0.93694724    -0.80000
O666        O  0.41219710  0.47573466  0.69242223    -0.77500
C667        C  0.48812319  0.48693559  0.61014358     0.83500
O668        O  0.49879951  0.40663124  0.74791484    -0.78600
O669        O  0.57060322  0.48812477  0.67721964    -0.80100
O670        O  0.48645912  0.57014089  0.73809247    -0.79900
O671        O  0.41268602  0.52108908  0.72958871    -0.78500
Zn672      Zn  0.46056966  0.45816450  0.68572043     1.55700
O673        O  0.52799595  0.56203755  0.69414738    -0.79900
Cd674      Cd  0.46374894  0.52060479  0.74504528     1.59700
Cd675      Cd  0.51800461  0.45679146  0.74787244     1.59600
O676        O  0.46540523  0.50644970  0.80174664    -0.79900
O677        O  0.49058809  0.48631958  0.71436835    -1.90400
Cd678      Cd  0.52291296  0.51139046  0.67860702     1.59900
O679        O  0.51188101  0.47351281  0.80285399    -0.79900
O680        O  0.50554578  0.51031871  0.62504954    -0.78500
C681        C  0.47720560  0.39149727  0.72833916     0.84000
C682        C  0.39692649  0.50049216  0.70884125     0.83700
O683        O  0.47283831  0.46290397  0.62967938    -0.77500
C684        C  0.51197218  0.58129657  0.71731151     0.84500
O685        O  0.46139323  0.40769092  0.70318650    -0.77600
C686        C  0.48781377  0.49012687  0.81957084     0.84600
C687        C  0.58507706  0.46691065  0.69888712     0.84900
O688        O  0.56948452  0.45414564  0.72839739    -0.80000
C689        C  0.42079978  0.22838347  0.74069609     0.19700
C690        C  0.45044936  0.24228281  0.75502344    -0.18400
C691        C  0.46033212  0.27664627  0.74712025    -0.10700
C692        C  0.44072714  0.29802673  0.72445431     0.21900
C693        C  0.41192988  0.28362281  0.70881333    -0.20000
C694        C  0.40205480  0.24930154  0.71673922    -0.10900
C695        C  0.44925601  0.33519993  0.71613763    -0.15000
C696        C  0.47054967  0.35419677  0.73593375    -0.28900
C697        C  0.41063867  0.19194096  0.75077400    -0.03200
C698        C  0.37815552  0.18012860  0.75036223    -0.39700
H699        H  0.46583194  0.22659962  0.77285669     0.13100
H700        H  0.48342424  0.28603541  0.75870645     0.12700
H701        H  0.39671717  0.29912860  0.69062680     0.12100
H702        H  0.37991247  0.23929030  0.70370291     0.12400
H703        H  0.43627967  0.34784679  0.69362608     0.15100
H704        H  0.48309990  0.34262464  0.75926399     0.13900
H705        H  0.43043413  0.17522704  0.76042629     0.11600
H706        H  0.35854190  0.19814428  0.74291082     0.13600
C707        C  0.41245867  0.30373461  0.96099566     0.19700
C708        C  0.42958347  0.27348444  0.97089440    -0.18400
C709        C  0.41550702  0.24076644  0.96507398    -0.10700
C710        C  0.38364507  0.23722793  0.94914901     0.21900
C711        C  0.36592692  0.26744527  0.94034165    -0.20000
C712        C  0.38012234  0.30027121  0.94600122    -0.10900
C713        C  0.36796173  0.20256534  0.94234338    -0.15000
C714        C  0.38670475  0.17391070  0.93651736    -0.28900
C715        C  0.42904964  0.33799130  0.96768744    -0.03200
C716        C  0.42038078  0.36823226  0.95142215    -0.39700
H717        H  0.45418231  0.27513610  0.98310866     0.13100
H718        H  0.42952899  0.21835280  0.97369924     0.12700
H719        H  0.34108388  0.26566223  0.92870875     0.12100
H720        H  0.36540777  0.32269572  0.93901791     0.12400
H721        H  0.34051252  0.20119432  0.94031427     0.15100
H722        H  0.41428604  0.17652082  0.93552633     0.13900
H723        H  0.45035402  0.33802482  0.98584271     0.11600
H724        H  0.40010061  0.36874936  0.93204169     0.13600
C725        C  0.23403558  0.54808790  0.69525818     0.19700
C726        C  0.24909570  0.51635707  0.68658428    -0.18400
C727        C  0.28347807  0.51018742  0.69310751    -0.10700
C728        C  0.30392320  0.53573755  0.70867007     0.21900
C729        C  0.28860369  0.56717139  0.71814416    -0.20000
C730        C  0.25423278  0.57330068  0.71168686    -0.10900
C731        C  0.34086854  0.53071911  0.71617356    -0.15000
C732        C  0.36004078  0.50471274  0.70250086    -0.28900
C733        C  0.19716665  0.55350523  0.68772917    -0.03200
C734        C  0.18341298  0.58509304  0.68386157    -0.39700
H735        H  0.23419215  0.49619722  0.67450929     0.13100
H736        H  0.29349707  0.48515676  0.68625525     0.12700
H737        H  0.30332244  0.58719869  0.73069850     0.12100
H738        H  0.24363150  0.59764412  0.72032092     0.12400
H739        H  0.35305408  0.54989447  0.73282281     0.15100
H740        H  0.34893331  0.48590683  0.68470916     0.13900
H741        H  0.18144649  0.53073132  0.68447590     0.11600
H742        H  0.20003870  0.60741252  0.68581734     0.13600
C743        C  0.29767110  0.54939705  0.97393513     0.19700
C744        C  0.26932127  0.52952005  0.96466804    -0.18400
C745        C  0.23594007  0.54157192  0.97078827    -0.10700
C746        C  0.22975795  0.57409798  0.98649902     0.21900
C747        C  0.25815142  0.59441717  0.99483126    -0.20000
C748        C  0.29162111  0.58228213  0.98880490    -0.10900
C749        C  0.19428292  0.58774280  0.99384335    -0.15000
C750        C  0.16652118  0.56690170  0.99932679    -0.28900
C751        C  0.33281714  0.53516627  0.96652414    -0.03200
C752        C  0.36107586  0.54638763  0.98275332    -0.39700
H753        H  0.27299162  0.50437561  0.95261114     0.13100
H754        H  0.21517554  0.52543016  0.96248022     0.12700
H755        H  0.25442586  0.61977169  0.00633865     0.12100
H756        H  0.31256197  0.59903076  0.99533058     0.12400
H757        H  0.19145023  0.61537837  0.99663247     0.15100
H758        H  0.17052666  0.53926899  0.99914839     0.13900
H759        H  0.33522438  0.51345707  0.94795533     0.11600
H760        H  0.35901784  0.56683291  0.00286645     0.13600
C761        C  0.22898348  0.05945128  0.75717278     0.19700
C762        C  0.21870246  0.02807245  0.74219288    -0.18400
C763        C  0.18412129  0.01965109  0.74005614    -0.10700
C764        C  0.15871163  0.04258182  0.75280705     0.21900
C765        C  0.16894832  0.07369453  0.76842109    -0.20000
C766        C  0.20359213  0.08212257  0.77059558    -0.10900
C767        C  0.12146870  0.03455631  0.75162090    -0.15000
C768        C  0.10843164  0.01062895  0.72947311    -0.28900
C769        C  0.26630460  0.06653923  0.75934309    -0.03200
C770        C  0.28019617  0.09760092  0.76638178    -0.39700
H771        H  0.23757330  0.00979633  0.73219577     0.13100
H772        H  0.17765017  0.99484751  0.72906512     0.12700
H773        H  0.15001156  0.09161846  0.77904651     0.12100
H774        H  0.21010465  0.10610489  0.78338261     0.12400
H775        H  0.10403777  0.04942370  0.76930821     0.15100
H776        H  0.12513270  0.99630650  0.71056802     0.13900
H777        H  0.28314894  0.04513124  0.75335750     0.11600
H778        H  0.26394078  0.11990657  0.76926780     0.13600
C779        C  0.05601697  0.72456180  0.68546559     0.19700
C780        C  0.02587392  0.73360093  0.70562306    -0.18400
C781        C  0.01761678  0.76827282  0.71099835    -0.10700
C782        C  0.03936733  0.79484860  0.69606376     0.21900
C783        C  0.06904882  0.78576820  0.67508129    -0.20000
C784        C  0.07733063  0.75113484  0.66979719    -0.10900
C785        C  0.03162729  0.83221846  0.70019634    -0.15000
C786        C  0.00884161  0.84494621  0.72571123    -0.28900
C787        C  0.06388893  0.68728915  0.68074993    -0.03200
C788        C  0.09572677  0.67535871  0.67375823    -0.39700
H789        H  0.00867600  0.71370764  0.71746902     0.13100
H790        H  0.99394362  0.77392780  0.72629747     0.12700
H791        H  0.08597648  0.80561558  0.66263720     0.12100
H792        H  0.10013632  0.74542915  0.65290615     0.12400
H793        H  0.04595145  0.85023512  0.68151711     0.15100
H794        H  0.99493904  0.82786091  0.74564082     0.13900
H795        H  0.04289894  0.66902244  0.68563454     0.11600
H796        H  0.11706919  0.69343627  0.67234716     0.13600
C797        C  0.23140159  0.08056107  0.96265048     0.19700
C798        C  0.20120094  0.09757903  0.95456878    -0.18400
C799        C  0.16928244  0.08162508  0.96231953    -0.10700
C800        C  0.16675245  0.04813696  0.97857973     0.21900
C801        C  0.19687915  0.03178266  0.98823218    -0.20000
C802        C  0.22879029  0.04767783  0.98035026    -0.10900
C803        C  0.13325766  0.02978826  0.98621001    -0.15000
C804        C  0.10574500  0.03638979  0.96640468    -0.28900
C805        C  0.26511662  0.09770720  0.95252669    -0.03200
C806        C  0.29334435  0.07939626  0.94397921    -0.39700
H807        H  0.20231623  0.12314180  0.94166124     0.13100
H808        H  0.14670666  0.09582069  0.95581378     0.12700
H809        H  0.19576861  0.00635843  0.00147396     0.12100
H810        H  0.25130693  0.03419391  0.98849153     0.12400
H811        H  0.13167908  0.00929506  0.00746738     0.15100
H812        H  0.10774505  0.05553564  0.94379379     0.13900
H813        H  0.26603107  0.12563695  0.94982829     0.11600
H814        H  0.29080521  0.05148302  0.94392259     0.13600
C815        C  0.07036033  0.71999831  0.99735593     0.19700
C816        C  0.08870850  0.74962739  0.00683715    -0.18400
C817        C  0.07556223  0.78292209  0.00161304    -0.10700
C818        C  0.04343253  0.78779570  0.98649071     0.21900
C819        C  0.02521910  0.75813287  0.97669374    -0.20000
C820        C  0.03835750  0.72481324  0.98199362    -0.10900
C821        C  0.02830866  0.82295909  0.97962454    -0.15000
C822        C  0.04030179  0.85281380  0.99320162    -0.28900
C823        C  0.08612876  0.68497956  0.00259790    -0.03200
C824        C  0.06833517  0.65476489  0.00433859    -0.39700
H825        H  0.11354374  0.74703940  0.01833077     0.13100
H826        H  0.09115485  0.80458400  0.00895630     0.12700
H827        H  0.00062784  0.76072251  0.96464149     0.12100
H828        H  0.02356432  0.70307120  0.97321307     0.12400
H829        H  0.00569644  0.82412943  0.96345113     0.15100
H830        H  0.06194017  0.85216864  0.01071651     0.13900
H831        H  0.11330152  0.68445062  0.00667548     0.11600
H832        H  0.04082693  0.65573336  0.00303872     0.13600
C833        C  0.45189402  0.02379470  0.79865524     0.19700
C834        C  0.48745279  0.02752353  0.79351493    -0.18400
C835        C  0.50856548  0.99859270  0.79326565    -0.10700
C836        C  0.49451462  0.96512805  0.79871293     0.21900
C837        C  0.45909624  0.96162894  0.80570724    -0.20000
C838        C  0.43804496  0.99052386  0.80601547    -0.10900
C839        C  0.51513236  0.93317663  0.79432124    -0.15000
C840        C  0.54944595  0.93218296  0.79535334    -0.28900
C841        C  0.43010830  0.05489899  0.79500968    -0.03200
C842        C  0.39771345  0.05310497  0.78430272    -0.39700
H843        H  0.49886702  0.05284313  0.78819492     0.13100
H844        H  0.53557964  0.00269312  0.78723746     0.12700
H845        H  0.44754787  0.93629790  0.81047952     0.12100
H846        H  0.41097044  0.98653950  0.81188616     0.12400
H847        H  0.50106722  0.90987298  0.78860385     0.15100
H848        H  0.56331044  0.95553968  0.80143704     0.13900
H849        H  0.44179569  0.07985105  0.79938894     0.11600
H850        H  0.38654700  0.02798034  0.77956157     0.13600
C851        C  0.52769636  0.67587410  0.74650538     0.19700
C852        C  0.50753713  0.70337206  0.75929446    -0.18400
C853        C  0.52164561  0.73661125  0.76212703    -0.10700
C854        C  0.55652161  0.74297219  0.75266359     0.21900
C855        C  0.57664559  0.71533295  0.74032961    -0.20000
C856        C  0.56260287  0.68224403  0.73755308    -0.10900
C857        C  0.57296557  0.77788060  0.75389548    -0.15000
C858        C  0.56023893  0.80440938  0.77383673    -0.28900
C859        C  0.51208436  0.64071415  0.74366458    -0.03200
C860        C  0.52477984  0.61726087  0.71961950    -0.39700
H861        H  0.48064272  0.69923861  0.76656219     0.13100
H862        H  0.50493450  0.75718148  0.77099140     0.12700
H863        H  0.60356408  0.71929195  0.73302260     0.12100
H864        H  0.57942493  0.66166033  0.72892422     0.12400
H865        H  0.59683697  0.78146771  0.73755742     0.15100
H866        H  0.53627305  0.80086916  0.79002787     0.13900
H867        H  0.48946482  0.63421381  0.76133292     0.11600
H868        H  0.54623253  0.62438877  0.70053992     0.13600
C869        C  0.71941356  0.91450485  0.75964513     0.19700
C870        C  0.74045468  0.92846794  0.78608161    -0.18400
C871        C  0.77474132  0.93649664  0.77671413    -0.10700
C872        C  0.78875675  0.93128119  0.74034480     0.21900
C873        C  0.76761767  0.91780606  0.71365134    -0.20000
C874        C  0.73337375  0.90915731  0.72323654    -0.10900
C875        C  0.82480783  0.94124508  0.72939950    -0.15000
C876        C  0.85003768  0.93824973  0.75328301    -0.28900
C877        C  0.68263662  0.90814889  0.77044406    -0.03200
C878        C  0.66321089  0.88381270  0.75525884    -0.39700
H879        H  0.73025584  0.93333548  0.81414097     0.13100
H880        H  0.78997569  0.94772035  0.79772369     0.12700
H881        H  0.77764702  0.91395558  0.68531834     0.12100
H882        H  0.71767933  0.89930861  0.70186224     0.12400
H883        H  0.83088049  0.95012258  0.70080199     0.15100
H884        H  0.84441671  0.92664848  0.78084683     0.13900
H885        H  0.67156830  0.92322977  0.79311211     0.11600
H886        H  0.67493943  0.86630488  0.73527786     0.13600
C887        C  0.46489865  0.02059107  0.89876148     0.19700
C888        C  0.50050143  0.02460934  0.89502588    -0.18400
C889        C  0.52186044  0.99585821  0.89533715    -0.10700
C890        C  0.50801946  0.96218324  0.89965494     0.21900
C891        C  0.47237911  0.95820969  0.90250142    -0.20000
C892        C  0.45106999  0.98691371  0.90209710    -0.10900
C893        C  0.52939045  0.93093451  0.90511697    -0.15000
C894        C  0.56339219  0.92994583  0.89744642    -0.28900
C895        C  0.44324342  0.05182271  0.90331091    -0.03200
C896        C  0.40970034  0.05206258  0.89693453    -0.39700
H897        H  0.51189466  0.05019745  0.89287209     0.13100
H898        H  0.54907454  0.00051075  0.89388076     0.12700
H899        H  0.46090633  0.93273896  0.90619793     0.12100
H900        H  0.42388146  0.98248114  0.90618796     0.12400
H901        H  0.51649756  0.90840929  0.91791354     0.15100
H902        H  0.57635670  0.95238710  0.88460742     0.11100
H903        H  0.45509739  0.07449012  0.91448168     0.11600
H904        H  0.39831088  0.02941963  0.88515761     0.13600
C905        C  0.57899216  0.74153519  0.94958213     0.19700
C906        C  0.60137669  0.71175133  0.42576473    -0.18400
C907        C  0.58262628  0.67860420  0.94893581    -0.10700
C908        C  0.54838361  0.67500187  0.96255649     0.21900
C909        C  0.53005358  0.70510945  0.97063795    -0.20000
C910        C  0.54502700  0.73791692  0.96418667    -0.10900
C911        C  0.53131499  0.64046349  0.96959053    -0.15000
C912        C  0.54116150  0.61163727  0.95172373    -0.28900
C913        C  0.59611177  0.77603556  0.94231336    -0.03200
C914        C  0.57889028  0.80545439  0.93604530    -0.39700
H915        H  0.62704895  0.71353017  0.41314083     0.13100
H916        H  0.60146777  0.65657091  0.42572579     0.12700
H917        H  0.50389109  0.70326019  0.98180983     0.12100
H918        H  0.52999469  0.76025456  0.97133044     0.12400
H919        H  0.50906738  0.63906457  0.98898172     0.15100
H920        H  0.56213900  0.61315331  0.93075419     0.13900
H921        H  0.62839538  0.77682927  0.42393429     0.11600
H922        H  0.55133811  0.80380883  0.93526277     0.13600
C923        C  0.73415223  0.89248235  0.96183154     0.19700
C924        C  0.76177390  0.87066047  0.96769765    -0.18400
C925        C  0.79394384  0.88431052  0.97494302    -0.10700
C926        C  0.79913089  0.92024043  0.97692909     0.21900
C927        C  0.77120553  0.94196045  0.97240277    -0.20000
C928        C  0.73916969  0.92835181  0.96483436    -0.10900
C929        C  0.83299734  0.93592376  0.98422769    -0.15000
C930        C  0.86285502  0.92097164  0.97434217    -0.28900
C931        C  0.70014186  0.87724339  0.95410954    -0.03200
C932        C  0.67759147  0.89425123  0.93356228    -0.39700
H933        H  0.75852062  0.84294694  0.96634740     0.13100
H934        H  0.81449540  0.86660091  0.97952429     0.12700
H935        H  0.77424989  0.96964913  0.97441115     0.12100
H936        H  0.71826737  0.94602492  0.96204601     0.12400
H937        H  0.83336878  0.96157207  0.99582299     0.15100
H938        H  0.86277558  0.89648155  0.96027575     0.13900
H939        H  0.69395126  0.85166948  0.96554848     0.11600
H940        H  0.68530351  0.91923806  0.92142132     0.13600
C941        C  0.02617403  0.49905839  0.65778046     0.19700
C942        C  0.02597597  0.46446010  0.67045871    -0.18400
C943        C  0.99671242  0.44350475  0.66892245    -0.10700
C944        C  0.96659663  0.45662713  0.65449456     0.21900
C945        C  0.96690290  0.49108791  0.64147128    -0.20000
C946        C  0.99610836  0.51201489  0.64301374    -0.10900
C947        C  0.93394447  0.43618648  0.65395561    -0.15000
C948        C  0.93143894  0.40162848  0.65949036    -0.28900
C949        C  0.05713725  0.52115620  0.66321599    -0.03200
C950        C  0.06171979  0.55344954  0.64877963    -0.39700
H951        H  0.04844156  0.45370478  0.68236343     0.13100
H952        H  0.99778730  0.41745441  0.68010635     0.12700
H953        H  0.94421794  0.50208673  0.63029379     0.12100
H954        H  0.99427823  0.53850079  0.63346528     0.12400
H955        H  0.91118584  0.45042806  0.64790758     0.15100
H956        H  0.95450661  0.38701856  0.66272917     0.13900
H957        H  0.07596432  0.51104620  0.68159624     0.11600
H958        H  0.04316574  0.56404823  0.63051980     0.13600
C959        C  0.91799206  0.15887868  0.68921788     0.19700
C960        C  0.89104385  0.17064734  0.66798284    -0.18400
C961        C  0.88486911  0.20615281  0.66321653    -0.10700
C962        C  0.90579442  0.23079677  0.67942614     0.21900
C963        C  0.93310037  0.21895985  0.69983952    -0.20000
C964        C  0.93922831  0.18371965  0.70459712    -0.10900
C965        C  0.90130988  0.26899503  0.67550948    -0.15000
C966        C  0.87413336  0.28526643  0.66182498    -0.28900
C967        C  0.92395152  0.12082742  0.69373327    -0.03200
C968        C  0.94360390  0.10690883  0.71995519    -0.39700
H969        H  0.87459213  0.15228677  0.65513146     0.13100
H970        H  0.86396619  0.21400857  0.64664798     0.12700
H971        H  0.95004759  0.23717260  0.71221307     0.12100
H972        H  0.96113331  0.17639741  0.71982873     0.12400
H973        H  0.92136238  0.28471993  0.68641064     0.15100
H974        H  0.85240054  0.27037148  0.65348785     0.13900
H975        H  0.91166060  0.10371022  0.67483817     0.11600
H976        H  0.95527446  0.12336289  0.73981390     0.13600
C977        C  0.67472383  0.42452177  0.69715360     0.19700
C978        C  0.69932816  0.41908904  0.72370367    -0.18400
C979        C  0.73167143  0.40632821  0.71310580    -0.10700
C980        C  0.73991209  0.39783827  0.67575019     0.21900
C981        C  0.71514779  0.40266562  0.64927789    -0.20000
C982        C  0.68307942  0.41623002  0.65969504    -0.10900
C983        C  0.77327151  0.38192383  0.66438621    -0.15000
C984        C  0.80301314  0.39179471  0.67832833    -0.28900
C985        C  0.64000405  0.43675518  0.70968979    -0.03200
C986        C  0.62052539  0.45637744  0.68790438    -0.39700
H987        H  0.69347910  0.42472526  0.75280038     0.13100
H988        H  0.74986502  0.40211475  0.73437067     0.12700
H989        H  0.72064391  0.39588863  0.62043929     0.12100
H990        H  0.66451907  0.41914206  0.63860237     0.12400
H991        H  0.77350240  0.36250819  0.64299285     0.15100
H992        H  0.80311929  0.41358992  0.69684677     0.13900
H993        H  0.63055577  0.42996495  0.73799720     0.11600
H994        H  0.63079894  0.46500737  0.66047818     0.13600
C995        C  0.94737711  0.43701420  0.05029185     0.19700
C996        C  0.98154020  0.43511750  0.06007223    -0.18400
C997        C  0.00379582  0.46372003  0.05501149    -0.10700
C998        C  0.99251032  0.49518658  0.03959003     0.21900
C999        C  0.95831008  0.49697857  0.02994881    -0.20000
C1000       C  0.93613449  0.46845024  0.03501148    -0.10900
C1001       C  0.01509549  0.52650157  0.03199702    -0.15000
C1002       C  0.04893971  0.52797066  0.03732302    -0.28900
C1003       C  0.92487911  0.40537084  0.05454144    -0.03200
C1004       C  0.89036532  0.40636613  0.05588134    -0.39700
H1005       H  0.99108265  0.41135231  0.07184806     0.13100
H1006       H  0.02962447  0.46070546  0.06335286     0.12700
H1007       H  0.94870511  0.52054954  0.01778844     0.12100
H1008       H  0.91049846  0.47108537  0.02583358     0.12400
H1009       H  0.00331401  0.54888868  0.01961603     0.15100
H1010       H  0.06132223  0.50535382  0.04824018     0.13900
H1011       H  0.93751191  0.38076786  0.05680614     0.11600
H1012       H  0.87840982  0.43143953  0.05578792     0.13600
C1013       C  0.89948442  0.22643921  0.03754922     0.19700
C1014       C  0.92562444  0.21688790  0.01161349    -0.18400
C1015       C  0.93298449  0.18207174  0.00544017    -0.10700
C1016       C  0.91619534  0.15689520  0.52564201     0.21900
C1017       C  0.88890125  0.16608163  0.55034923    -0.20000
C1018       C  0.88163256  0.20085573  0.55733223    -0.10900
C1019       C  0.92320029  0.11931335  0.51941855    -0.15000
C1020       C  0.93987931  0.10528431  0.99032469    -0.28900
C1021       C  0.89210390  0.26411470  0.04208126    -0.03200
C1022       C  0.86250712  0.27628703  0.05732374    -0.39700
H1023       H  0.94037561  0.23653138  0.99574406     0.13100
H1024       H  0.95368957  0.17635886  0.98555402     0.12700
H1025       H  0.87293223  0.14620263  0.56425790     0.12100
H1026       H  0.86033931  0.20623735  0.57654292     0.12400
H1027       H  0.91141561  0.10074226  0.53945404     0.15100
H1028       H  0.94992375  0.12269932  0.96822629     0.13900
H1029       H  0.91078327  0.28242425  0.02968201     0.11600
H1030       H  0.84620182  0.26018358  0.57272373     0.13600
C1031       C  0.65058187  0.41037755  0.01518418     0.19700
C1032       C  0.65900145  0.37989545  0.03446524    -0.18400
C1033       C  0.69290496  0.37305278  0.04283868    -0.10700
C1034       C  0.71936412  0.39686972  0.03241532     0.21900
C1035       C  0.71064125  0.42772614  0.01404499    -0.20000
C1036       C  0.67688541  0.43445907  0.00559749    -0.10900
C1037       C  0.75633105  0.39099322  0.03916488    -0.15000
C1038       C  0.76928443  0.36193026  0.05422002    -0.28900
C1039       C  0.61411041  0.41714264  0.00711530    -0.03200
C1040       C  0.60486519  0.43871488  0.97935945    -0.39700
H1041       H  0.64189364  0.36182562  0.54373828     0.13100
H1042       H  0.70076548  0.34988241  0.55777916     0.12700
H1043       H  0.73014200  0.44686274  0.00601221     0.12100
H1044       H  0.67154623  0.45891180  0.99213095     0.12400
H1045       H  0.77394110  0.41133213  0.02920211     0.15100
H1046       H  0.75521662  0.34219215  0.56442707     0.13900
H1047       H  0.59433543  0.40408490  0.02470776     0.11600
H1048       H  0.62442880  0.45080724  0.96075179     0.13600
loop_ 
_geom_bond_atom_site_label_1 
_geom_bond_atom_site_label_2 
_geom_bond_distance 
_geom_bond_site_symmetry_2 
_ccdc_geom_bond_type 
C1            C2   1.403       .  A
C1          C530   1.408       .  A
C1         C1038   1.501       .  S
C2            C3   1.406       .  A
C2            H7   1.084       .  S
C3          C528   1.415       .  A
C3         C1022   1.499       .  S
C4            C5   1.419       .  A
C4          C527   1.416       .  A
C4            H8   1.079       .  S
C5            C6   1.413       .  A
C5          C480   1.508       .  S
C6          C525   1.409       .  A
C6            H9   1.082       .  S
C10          C11   1.411       .  A
C10          C15   1.409       .  A
C10         C460   1.495       .  S
C11          C12   1.409       .  A
C11          H16   1.083       .  S
C12          C13   1.410       .  A
C12         C442   1.499       .  S
C13          C14   1.405       .  A
C13          H17   1.082       .  S
C14          C15   1.410       .  A
C14         C424   1.498       .  S
C15          H18   1.081       .  S
C19          C20   1.419       .  A
C19          C24   1.411       .  A
C19         C390   1.502       .  S
C20          C21   1.417       .  A
C20          H25   1.079       .  S
C21          C22   1.404       .  A
C21         C408   1.497       .  S
C22          C23   1.399       .  A
C22          H26   1.085       .  S
C23          C24   1.406       .  A
C23         C370   1.493       .  S
C24          H27   1.082       .  S
C28          C29   1.408       .  A
C28          C33   1.412       .  A
C28         C334   1.497       .  S
C29          C30   1.412       .  A
C29          H34   1.081       .  S
C30          C31   1.405       .  A
C30         C316   1.497       .  S
C31          C32   1.407       .  A
C31          H35   1.083       .  S
C32          C33   1.406       .  A
C32         C354   1.493       .  S
C33          H36   1.082       .  S
O37          C53   1.281       .  A
O37         Zn43   2.083   1_455  S
C38         C406   1.485       .  S
C38          O54   1.275       .  A
C38         O575   1.280       .  A
O39          C52   1.276   1_545  A
O39         Cd46   2.066   1_655  S
O40         C582   1.278   1_554  A
O40         Cd49   2.107   1_545  S
O41          C55   1.278   1_455  A
O41         Cd45   2.080       .  S
O42          C53   1.277       .  A
O42        Cd569   2.091       .  S
Zn43         O54   2.026       .  S
Zn43         O56   2.045       .  S
Zn43         O48   1.965       .  S
O44          C55   1.276       .  A
O44         Cd49   2.075       .  S
Cd45        O566   2.092       .  S
Cd45        O571   2.113   1_554  S
Cd45        O572   2.009   1_454  S
Cd46         O50   2.068       .  S
Cd46         O59   2.087   1_455  S
Cd46         O48   1.998   1_445  S
O47          C57   1.280   1_565  A
O47        Cd569   2.113       .  S
O48        Cd569   2.009   1_655  S
O48        Cd573   2.022       .  S
Cd49         O51   2.099   1_554  S
Cd49        O572   2.023   1_554  S
O50          C57   1.274       .  A
O51         C562   1.280       .  A
C52          O56   1.279       .  A
C52          C76   1.473       .  S
C53         C298   1.498       .  S
C55          C81   1.471       .  S
C57         C280   1.486       .  S
C58         C496   1.492       .  S
C58          O59   1.276       .  A
C58         O564   1.278       .  A
O60          C76   1.276       .  A
O60         Zn66   2.032       .  S
C61         C352   1.484       .  S
C61          O77   1.275       .  A
C61          O74   1.280       .  A
O62          C75   1.275       .  A
O62         Cd69   2.074       .  S
O63          C81   1.278       .  A
O63         Cd72   2.090       .  S
O64          C78   1.277       .  A
O64         Cd68   2.081       .  S
O65          C76   1.276   1_545  A
O65         Cd68   2.074       .  S
Zn66         O77   2.023       .  S
Zn66         O79   2.036       .  S
Zn66         O71   1.948       .  S
O67          C78   1.279       .  A
O67         Cd72   2.101   1_545  S
Cd68         O70   2.085   1_655  S
Cd68         O71   2.002   1_545  S
Cd69         O73   2.077       .  S
Cd69         O82   2.062       .  S
Cd69         O71   2.001   1_455  S
O70          C80   1.276       .  A
O71         Cd72   2.020       .  S
Cd72         O74   2.108       .  S
O73          C80   1.275   1_565  A
C75         C262   1.482       .  S
C75          O79   1.275   1_455  A
C78         C444   1.485       .  S
C80         C244   1.483       .  S
C81          O82   1.274   1_655  A
C83          C84   1.408       .  A
C83          C88   1.418       .  A
C83         C226   1.506       .  S
C84          C85   1.403       .  A
C84          H89   1.085       .  S
C85          C86   1.410       .  A
C85         C478   1.505       .  S
C86          C87   1.417       .  A
C86          H90   1.082       .  S
C87          C88   1.422       .  A
C87         C300   1.511       .  S
C88          H91   1.079       .  S
C92          C93   1.417       .  A
C92          C97   1.406       .  A
C92         C210   1.496       .  S
C93          C94   1.419       .  A
C93          H98   1.080       .  S
C94          C95   1.408       .  A
C94         C426   1.498       .  S
C95          C96   1.404       .  A
C95          H99   1.081       .  S
C96          C97   1.400       .  A
C96         C264   1.495       .  S
C97         H100   1.085       .  S
C101        C102   1.416       .  A
C101        C106   1.403       .  A
C101        C282   1.497       .  S
C102        C103   1.420       .  A
C102        H107   1.079       .  S
C103        C104   1.412       .  A
C103        C190   1.501       .  S
C104        C105   1.405       .  A
C104        H108   1.082       .  S
C105        C106   1.398       .  A
C105        C372   1.492       .  S
C106        H109   1.085       .  S
C110        C111   1.406       .  A
C110        C115   1.401       .  A
C110        C246   1.493       .  S
C111        C112   1.408       .  A
C111        H116   1.082       .  S
C112        C113   1.414       .  A
C112        C318   1.495       .  S
C113        C114   1.414       .  A
C113        H117   1.077       .  S
C114        C115   1.405       .  A
C114        C174   1.495       .  S
C115        H118   1.085       .  S
O119        C135   1.278       .  A
O119       Zn125   2.045       .  S
C120        C228   1.497       .  S
C120        O136   1.281       .  A
C120        O133   1.278       .  A
O121        C134   1.276       .  A
O121       Cd128   2.073       .  S
O122        C664   1.279       .  A
O122       Cd131   2.108       .  S
O123        C137   1.276       .  A
O123       Cd127   2.081   1_554  S
O124        C659   1.280       .  A
O124       Cd127   2.103       .  S
Zn125       O136   2.073       .  S
Zn125       O138   2.062       .  S
Zn125       O130   1.957       .  S
O126        C137   1.279       .  A
O126       Cd131   2.086   1_554  S
Cd127       O129   2.109       .  S
Cd127       O654   2.021       .  S
Cd128       O132   2.081       .  S
Cd128       O141   2.085       .  S
Cd128       O130   1.994       .  S
O129        C663   1.279       .  A
O130       Cd651   2.017       .  S
O130       Cd655   2.005       .  S
Cd131       O657   2.092       .  S
Cd131       O654   2.007       .  S
O132        C139   1.276       .  A
O133       Cd655   2.096       .  S
C134        O138   1.281       .  A
C134        C162   1.475       .  S
C135        C192   1.490       .  S
C135        O648   1.280       .  A
C137        C143   1.470       .  S
C139        C516   1.489       .  S
C139        O653   1.278       .  A
C140        C388   1.492       .  S
C140        O141   1.276       .  A
C140        O646   1.280       .  A
O142        C158   1.276       .  A
O142       Zn148   2.031       .  S
C143        O159   1.278       .  A
C143        O156   1.274       .  A
O144        C157   1.275       .  A
O144       Cd151   2.075       .  S
O145        C163   1.276       .  A
O145       Cd154   2.087       .  S
O146        C160   1.281       .  A
O146       Cd150   2.110       .  S
O147        C158   1.281       .  A
O147       Cd150   2.109       .  S
Zn148       O159   2.050       .  S
Zn148       O161   2.045       .  S
Zn148       O153   1.947       .  S
O149        C160   1.275       .  A
O149       Cd154   2.068       .  S
Cd150       O152   2.091       .  S
Cd150       O153   2.010       .  S
Cd151       O155   2.091       .  S
Cd151       O164   2.107       .  S
Cd151       O153   1.999       .  S
O152        C162   1.278       .  A
O153       Cd154   1.980       .  S
Cd154       O156   2.065       .  S
O155        C162   1.280       .  A
C157        C172   1.482       .  S
C157        O161   1.279       .  A
C158        C208   1.489       .  S
C160        C336   1.484       .  S
C163        C462   1.490       .  S
C163        O164   1.279       .  A
C165        C166   1.404       .  A
C165        C170   1.409       .  A
C165        C173   1.494       .  S
C166        C167   1.402       .  A
C166        H175   1.083       .  S
C167        C168   1.410       .  A
C167        H176   1.081       .  S
C168        C169   1.404       .  A
C168        C171   1.494       .  S
C169        C170   1.400       .  A
C169        H177   1.083       .  S
C170        H178   1.081       .  S
C171        H179   1.087       .  S
C171        C172   1.348       .  D
C172        H180   1.084       .  S
C173        H181   1.083       .  S
C173        C174   1.349       .  D
C174        H182   1.085       .  S
C183        C184   1.405       .  A
C183        C188   1.411       .  A
C183        C191   1.502       .  S
C184        C185   1.402       .  A
C184        H193   1.083       .  S
C185        C186   1.410       .  A
C185        H194   1.081       .  S
C186        C187   1.407       .  A
C186        C189   1.502       .  S
C187        C188   1.406       .  A
C187        H195   1.083       .  S
C188        H196   1.081       .  S
C189        H197   1.084       .  S
C189        C190   1.353       .  D
C190        H198   1.085       .  S
C191        H199   1.087       .  S
C191        C192   1.351       .  D
C192        H200   1.084       .  S
C201        C202   1.406       .  A
C201        C206   1.411       .  A
C201        C209   1.502       .  S
C202        C203   1.406       .  A
C202        H211   1.083       .  S
C203        C204   1.411       .  A
C203        H212   1.081       .  S
C204        C205   1.404       .  A
C204        C207   1.500       .  S
C205        C206   1.402       .  A
C205        H213   1.083       .  S
C206        H214   1.081       .  S
C207        H215   1.087       .  S
C207        C208   1.349       .  D
C208        H216   1.085       .  S
C209        H217   1.085       .  S
C209        C210   1.350       .  D
C210        H218   1.085       .  S
C219        C220   1.407       .  A
C219        C224   1.412       .  A
C219        C227   1.508       .  S
C220        C221   1.405       .  A
C220        H229   1.083       .  S
C221        C222   1.410       .  A
C221        H230   1.081       .  S
C222        C223   1.408       .  A
C222        C225   1.508       .  S
C223        C224   1.410       .  A
C223        H231   1.083       .  S
C224        H232   1.081       .  S
C225        H233   1.085       .  S
C225        C226   1.354       .  D
C226        H234   1.085       .  S
C227        H235   1.087       .  S
C227        C228   1.354       .  D
C228        H236   1.084       .  S
C237        C238   1.404       .  A
C237        C242   1.408       .  A
C237        C245   1.494       .  S
C238        C239   1.400       .  A
C238        H247   1.083       .  S
C239        C240   1.409       .  A
C239        H248   1.079   1_545  S
C240        C241   1.406       .  A
C240        C243   1.497       .  S
C241        C242   1.402       .  A
C241        H249   1.083       .  S
C242        H250   1.081       .  S
C243        H251   1.087       .  S
C243        C244   1.350       .  D
C244        H252   1.082   1_545  S
C245        H253   1.085       .  S
C245        C246   1.350       .  D
C246        H254   1.084       .  S
C255        C256   1.406       .  A
C255        C260   1.409       .  A
C255        C263   1.495       .  S
C256        C257   1.400       .  A
C256        H265   1.083       .  S
C257        C258   1.407       .  A
C257        H266   1.081   1_455  S
C258        C259   1.404       .  A
C258        C261   1.491       .  S
C259        C260   1.400       .  A
C259        H267   1.083       .  S
C260        H268   1.080       .  S
C261        H269   1.087       .  S
C261        C262   1.349       .  D
C262        H270   1.085   1_455  S
C263        H271   1.084       .  S
C263        C264   1.352       .  D
C264        H272   1.083       .  S
C273        C274   1.404       .  A
C273        C278   1.411       .  A
C273        C281   1.499       .  S
C274        C275   1.404       .  A
C274        H283   1.083       .  S
C275        C276   1.411       .  A
C275        H284   1.081       .  S
C276        C277   1.404       .  A
C276        C279   1.498       .  S
C277        C278   1.403       .  A
C277        H285   1.083       .  S
C278        H286   1.082       .  S
C279        H287   1.087       .  S
C279        C280   1.348       .  D
C280        H288   1.085       .  S
C281        H289   1.085       .  S
C281        C282   1.348       .  D
C282        H290   1.086       .  S
C291        C292   1.408       .  A
C291        C296   1.411       .  A
C291        C299   1.511       .  S
C292        C293   1.408       .  A
C292        H301   1.083       .  S
C293        C294   1.411       .  A
C293        H302   1.080       .  S
C294        C295   1.408       .  A
C294        C297   1.511       .  S
C295        C296   1.408       .  A
C295        H303   1.083       .  S
C296        H304   1.081       .  S
C297        H305   1.087       .  S
C297        C298   1.355       .  D
C298        H306   1.084       .  S
C299        H307   1.084       .  S
C299        C300   1.357       .  D
C300        H308   1.084       .  S
C309        C310   1.405       .  A
C309        C314   1.408   1_545  A
C309        C317   1.495       .  S
C310        C311   1.403   1_545  A
C310        H319   1.083       .  S
C311        C312   1.410       .  A
C311        H320   1.081       .  S
C312        C313   1.404       .  A
C312        C315   1.494       .  S
C313        C314   1.399       .  A
C313        H321   1.083       .  S
C314        H322   1.081       .  S
C315        H323   1.083       .  S
C315        C316   1.350       .  D
C316        H324   1.084       .  S
C317        H325   1.084       .  S
C317        C318   1.351       .  D
C318        H326   1.085       .  S
C327        C328   1.406       .  A
C327        C332   1.409       .  A
C327        C335   1.500       .  S
C328        C329   1.405       .  A
C328        H337   1.083       .  S
C329        C330   1.411       .  A
C329        H338   1.080       .  S
C330        C331   1.405       .  A
C330        C333   1.499       .  S
C331        C332   1.400       .  A
C331        H339   1.083       .  S
C332        H340   1.080       .  S
C333        H341   1.085       .  S
C333        C334   1.352       .  D
C334        H342   1.083       .  S
C335        H343   1.087       .  S
C335        C336   1.350       .  D
C336        H344   1.084       .  S
C345        C346   1.404       .  A
C345        C350   1.409       .  A
C345        C353   1.492       .  S
C346        C347   1.401       .  A
C346        H355   1.084       .  S
C347        C348   1.408       .  A
C347        H356   1.082       .  S
C348        C349   1.405       .  A
C348        C351   1.494       .  S
C349        C350   1.405       .  A
C349        H357   1.083       .  S
C350        H358   1.082       .  S
C351        H359   1.087       .  S
C351        C352   1.347       .  D
C352        H360   1.086       .  S
C353        H361   1.086       .  S
C353        C354   1.350       .  D
C354        H362   1.086       .  S
C363        C364   1.404       .  A
C363        C368   1.409   1_545  A
C363        C371   1.494       .  S
C364        C365   1.402   1_545  A
C364        H373   1.083       .  S
C365        C366   1.410       .  A
C365        H374   1.080   1_565  S
C366        C367   1.404       .  A
C366        C369   1.495       .  S
C367        C368   1.399       .  A
C367        H375   1.083       .  S
C368        H376   1.081       .  S
C369        H377   1.085       .  S
C369        C370   1.349       .  D
C370        H378   1.084       .  S
C371        H379   1.085       .  S
C371        C372   1.349       .  D
C372        H380   1.085       .  S
C381        C386   1.410       .  A
C381        C906   1.406       .  A
C381        C389   1.503       .  S
C382        C905   1.406       .  A
C382        C907   1.404       .  A
C382        H391   1.083       .  S
C383        C384   1.411       .  A
C383        C906   1.406       .  A
C383        H916   1.081       .  S
C384        C385   1.406       .  A
C384        C387   1.503       .  S
C385        C386   1.404       .  A
C385        H393   1.083       .  S
C386        H394   1.081       .  S
C387        H395   1.087       .  S
C387        C388   1.351       .  D
C388        H396   1.084       .  S
C389        H921   1.085       .  S
C389        C390   1.353       .  D
C390        H398   1.085       .  S
H392        C907   1.081       .  S
H397        C913   1.084       .  S
C399        C400   1.404       .  A
C399        C404   1.410       .  A
C399        C407   1.497       .  S
C400        C401   1.404       .  A
C400        H409   1.083       .  S
C401        C402   1.410       .  A
C401        H410   1.081       .  S
C402        C403   1.404       .  A
C402        C405   1.497       .  S
C403        C404   1.402       .  A
C403        H411   1.083       .  S
C404        H412   1.082       .  S
C405        H413   1.087       .  S
C405        C406   1.348       .  D
C406        H414   1.085       .  S
C407        H415   1.084       .  S
C407        C408   1.349       .  D
C408        H416   1.086       .  S
C417        C418   1.405       .  A
C417        C422   1.412   1_455  A
C417        C425   1.502       .  S
C418        C419   1.403   1_455  A
C418        H427   1.083       .  S
C419        C420   1.409       .  A
C419        H428   1.081       .  S
C420        C421   1.404       .  A
C420        C423   1.497       .  S
C421        C422   1.402       .  A
C421        H429   1.083       .  S
C422        H430   1.080       .  S
C423        H431   1.084       .  S
C423        C424   1.351       .  D
C424        H432   1.085       .  S
C425        H433   1.085       .  S
C425        C426   1.350       .  D
C426        H434   1.083       .  S
C435        C436   1.407       .  A
C435        C440   1.407       .  A
C435        C443   1.498       .  S
C436        C437   1.407       .  A
C436        H445   1.083       .  S
C437        C438   1.410       .  A
C437        H446   1.080       .  S
C438        C439   1.406       .  A
C438        C441   1.498       .  S
C439        C440   1.399       .  A
C439        H447   1.083       .  S
C440        H448   1.081       .  S
C441        H449   1.084       .  S
C441        C442   1.354       .  D
C442        H450   1.083       .  S
C443        H451   1.087       .  S
C443        C444   1.351       .  D
C444        H452   1.085       .  S
C453        C454   1.405       .  A
C453        C458   1.409       .  A
C453        C461   1.496       .  S
C454        C455   1.404       .  A
C454        H463   1.083       .  S
C455        C456   1.408       .  A
C455        H464   1.082       .  S
C456        C457   1.406       .  A
C456        C459   1.496       .  S
C457        C458   1.405       .  A
C457        H465   1.083       .  S
C458        H466   1.083       .  S
C459        H467   1.086       .  S
C459        C460   1.350       .  D
C460        H468   1.086       .  S
C461        H469   1.087       .  S
C461        C462   1.349       .  D
C462        H470   1.086       .  S
C471        C472   1.407       .  A
C471        C476   1.410       .  A
C471        C479   1.507       .  S
C472        C473   1.407   1_655  A
C472        H481   1.083       .  S
C473        C474   1.413   1_455  A
C473        H482   1.079       .  S
C474        C475   1.408       .  A
C474        C477   1.510   1_655  S
C475        C476   1.405       .  A
C475        H483   1.083       .  S
C476        H484   1.081       .  S
C477        H485   1.085       .  S
C477        C478   1.355       .  D
C478        H486   1.082       .  S
C479        H487   1.083       .  S
C479        C480   1.355       .  D
C480        H488   1.084       .  S
C489        C490   1.407       .  A
C489       C1018   1.412       .  A
C489        C497   1.507       .  S
C490        C491   1.404       .  A
C490        H499   1.083       .  S
C491       C1016   1.410       .  A
C491        H500   1.080       .  S
C492        C493   1.407       .  A
C492       C1015   1.410       .  A
C492        C495   1.504       .  S
C493        C494   1.405       .  A
C493        H501   1.083       .  S
C494       C1013   1.411       .  A
C494        H502   1.081       .  S
C495        H503   1.087       .  S
C495       C1020   1.352   1_554  D
C496        H504   1.084       .  S
C496       C1019   1.354       .  D
C497        H505   1.086       .  S
C497        C498   1.352       .  D
C498        C527   1.500       .  S
C498       H1030   1.083       .  S
H506       C1022   1.084       .  S
C507        C508   1.407       .  A
C507        C512   1.408       .  A
C507        C515   1.501       .  S
C508        C509   1.408       .  A
C508       H1041   1.083       .  S
C509        C510   1.412       .  A
C509       H1042   1.080       .  S
C510        C511   1.406       .  A
C510        C513   1.504       .  S
C511        C512   1.401       .  A
C511        H519   1.083       .  S
C512        H520   1.081       .  S
C513        H521   1.085       .  S
C513        C514   1.353       .  D
C514        C525   1.502       .  S
C514       H1046   1.083       .  S
C515        H523   1.087       .  S
C515        C516   1.352       .  D
C516        H524   1.085       .  S
H517       C1032   1.083       .  S
H518       C1033   1.080       .  S
H522       C1038   1.083       .  S
C525        C526   1.403       .  A
C526        C527   1.406       .  A
C526        H531   1.084       .  S
C528        C529   1.417       .  A
C528        H532   1.079       .  S
C529        C530   1.412       .  A
C529       C1004   1.504       .  S
C530        H533   1.082       .  S
C534        C535   1.411       .  A
C534        C539   1.409       .  A
C534        C984   1.494       .  S
C535        C536   1.408       .  A
C535        H540   1.083       .  S
C536        C537   1.410       .  A
C536        C966   1.499       .  S
C537        C538   1.405       .  A
C537        H541   1.082       .  S
C538        C539   1.411       .  A
C538        C948   1.499       .  S
C539        H542   1.082       .  S
C543        C544   1.418       .  A
C543        C548   1.411       .  A
C543        C914   1.502       .  S
C544        C545   1.415       .  A
C544        H549   1.078       .  S
C545        C546   1.404       .  A
C545        C932   1.497       .  S
C546        C547   1.399       .  A
C546        H550   1.085       .  S
C547        C548   1.407       .  A
C547        C894   1.495       .  S
C548        H551   1.082       .  S
C552        C553   1.408       .  A
C552        C557   1.412       .  A
C552        C858   1.498       .  S
C553        C554   1.411       .  A
C553        H558   1.081       .  S
C554        C555   1.405       .  A
C554        C840   1.496       .  S
C555        C556   1.407       .  A
C555        H559   1.083       .  S
C556        C557   1.406       .  A
C556        C878   1.493       .  S
C557        H560   1.081       .  S
O561        C577   1.281       .  A
O561       Zn567   2.085   1_455  S
C562        C930   1.483       .  S
C562        O578   1.276       .  A
O563        C576   1.275   1_545  A
O563       Cd570   2.065       .  S
O564       Cd573   2.108   1_545  S
O565        C579   1.279   1_455  A
O565       Cd569   2.081       .  S
O566        C577   1.277   1_554  A
Zn567       O578   2.026       .  S
Zn567       O580   2.055       .  S
Zn567       O572   1.967       .  S
O568        C579   1.277       .  A
O568       Cd573   2.075       .  S
Cd570       O574   2.064   1_655  S
Cd570       O583   2.082       .  S
Cd570       O572   1.997   1_545  S
O571        C581   1.280   1_565  A
Cd573       O575   2.105       .  S
O574        C581   1.273       .  A
C576        O580   1.280       .  A
C576        C600   1.476       .  S
C577        C822   1.498       .  S
C579        C605   1.471       .  S
C581        C804   1.484       .  S
C582       C1020   1.490       .  S
C582        O583   1.275       .  A
O584        C600   1.276       .  A
O584       Zn590   2.036       .  S
C585        C876   1.483       .  S
C585        O601   1.275       .  A
C585        O598   1.279       .  A
O586        C599   1.275       .  A
O586       Cd593   2.071       .  S
O587        C605   1.278       .  A
O587       Cd596   2.086       .  S
O588        C602   1.278       .  A
O588       Cd592   2.085       .  S
O589        C600   1.277   1_545  A
O589       Cd592   2.079       .  S
Zn590       O601   2.026       .  S
Zn590       O603   2.039       .  S
Zn590       O595   1.953       .  S
O591        C602   1.279       .  A
O591       Cd596   2.101   1_545  S
Cd592       O594   2.090   1_655  S
Cd592       O595   2.002   1_545  S
Cd593       O597   2.073       .  S
Cd593       O606   2.065       .  S
Cd593       O595   2.000   1_455  S
O594        C604   1.277       .  A
O595       Cd596   2.020       .  S
Cd596       O598   2.102       .  S
O597        C604   1.274   1_565  A
C599        C786   1.483       .  S
C599        O603   1.276   1_455  A
C602        C968   1.487       .  S
C604        C768   1.482       .  S
C605        O606   1.274   1_655  A
C607        C608   1.407       .  A
C607        C612   1.418       .  A
C607        C750   1.504   1_554  S
C608        C609   1.402       .  A
C608        H613   1.085       .  S
C609        C610   1.410       .  A
C609       C1002   1.503       .  S
C610        C611   1.415       .  A
C610        H614   1.082       .  S
C611        C612   1.422       .  A
C611        C824   1.509       .  S
C612        H615   1.080   1_554  S
C616        C617   1.418       .  A
C616        C621   1.407       .  A
C616        C734   1.501       .  S
C617        C618   1.416       .  A
C617        H622   1.080       .  S
C618        C619   1.406       .  A
C618        C950   1.493       .  S
C619        C620   1.403       .  A
C619        H623   1.083       .  S
C620        C621   1.401       .  A
C620        C788   1.492       .  S
C621        H624   1.085       .  S
C625        C626   1.416       .  A
C625        C630   1.403       .  A
C625        C806   1.496       .  S
C626        C627   1.419       .  A
C626        H631   1.080       .  S
C627        C628   1.412       .  A
C627        C714   1.501       .  S
C628        C629   1.406       .  A
C628        H632   1.082       .  S
C629        C630   1.398       .  A
C629        C896   1.493       .  S
C630        H633   1.085       .  S
C634        C635   1.405       .  A
C634        C639   1.403       .  A
C634        C770   1.494       .  S
C635        C636   1.405       .  A
C635        H640   1.082       .  S
C636        C637   1.412       .  A
C636        C842   1.492       .  S
C637        C638   1.414       .  A
C637        H641   1.077       .  S
C638        C639   1.408       .  A
C638        C698   1.498       .  S
C639        H642   1.084       .  S
O643        C659   1.278       .  A
O643       Zn649   2.050       .  S
C644        C752   1.494       .  S
C644        O660   1.280       .  A
C644        O657   1.278       .  A
O645        C658   1.276       .  A
O645       Cd652   2.075       .  S
O646       Cd655   2.112       .  S
O647        C661   1.277       .  A
O647       Cd651   2.079       .  S
O648       Cd651   2.102       .  S
Zn649       O660   2.067       .  S
Zn649       O662   2.061       .  S
Zn649       O654   1.958       .  S
O650        C661   1.280       .  A
O650       Cd655   2.093       .  S
Cd651       O653   2.107       .  S
Cd652       O656   2.078       .  S
Cd652       O665   2.083       .  S
Cd652       O654   1.996       .  S
O656        C663   1.276       .  A
C658        O662   1.280       .  A
C658        C686   1.476       .  S
C659        C716   1.493       .  S
C661        C667   1.471       .  S
C663       C1040   1.488       .  S
C664        C912   1.489       .  S
C664        O665   1.276       .  A
O666        C682   1.276       .  A
O666       Zn672   2.028       .  S
C667        O683   1.277       .  A
C667        O680   1.274       .  A
O668        C681   1.276       .  A
O668       Cd675   2.078       .  S
O669        C687   1.276       .  A
O669       Cd678   2.086       .  S
O670        C684   1.281       .  A
O670       Cd674   2.112       .  S
O671        C682   1.280       .  A
O671       Cd674   2.108       .  S
Zn672       O683   2.043       .  S
Zn672       O685   2.042       .  S
Zn672       O677   1.946       .  S
O673        C684   1.275       .  A
O673       Cd678   2.064       .  S
Cd674       O676   2.096       .  S
Cd674       O677   2.015       .  S
Cd675       O679   2.091       .  S
Cd675       O688   2.107       .  S
Cd675       O677   2.003       .  S
O676        C686   1.279       .  A
O677       Cd678   1.984       .  S
Cd678       O680   2.072       .  S
O679        C686   1.279       .  A
C681        C696   1.483       .  S
C681        O685   1.278       .  A
C682        C732   1.488       .  S
C684        C860   1.483       .  S
C687        C986   1.490       .  S
C687        O688   1.280       .  A
C689        C690   1.404       .  A
C689        C694   1.408       .  A
C689        C697   1.495       .  S
C690        C691   1.402       .  A
C690        H699   1.083       .  S
C691        C692   1.410       .  A
C691        H700   1.080       .  S
C692        C693   1.405       .  A
C692        C695   1.496       .  S
C693        C694   1.400       .  A
C693        H701   1.083       .  S
C694        H702   1.081       .  S
C695        H703   1.087       .  S
C695        C696   1.349       .  D
C696        H704   1.084       .  S
C697        H705   1.083       .  S
C697        C698   1.351       .  D
C698        H706   1.085       .  S
C707        C708   1.406       .  A
C707        C712   1.411       .  A
C707        C715   1.503       .  S
C708        C709   1.403       .  A
C708        H717   1.083       .  S
C709        C710   1.409       .  A
C709        H718   1.081       .  S
C710        C711   1.407       .  A
C710        C713   1.503       .  S
C711        C712   1.407       .  A
C711        H719   1.083       .  S
C712        H720   1.081       .  S
C713        H721   1.085       .  S
C713        C714   1.353       .  D
C714        H722   1.085       .  S
C715        H723   1.087       .  S
C715        C716   1.352       .  D
C716        H724   1.084       .  S
C725        C726   1.405       .  A
C725        C730   1.411       .  A
C725        C733   1.503       .  S
C726        C727   1.404       .  A
C726        H735   1.083       .  S
C727        C728   1.412       .  A
C727        H736   1.080       .  S
C728        C729   1.405       .  A
C728        C731   1.503       .  S
C729        C730   1.403       .  A
C729        H737   1.083       .  S
C730        H738   1.081       .  S
C731        H739   1.087       .  S
C731        C732   1.350       .  D
C732        H740   1.083       .  S
C733        H741   1.084       .  S
C733        C734   1.351       .  D
C734        H742   1.084       .  S
C743        C744   1.406       .  A
C743        C748   1.411       .  A
C743        C751   1.504       .  S
C744        C745   1.404       .  A
C744        H753   1.083       .  S
C745        C746   1.411       .  A
C745        H754   1.081       .  S
C746        C747   1.407       .  A
C746        C749   1.507       .  S
C747        C748   1.408       .  A
C747        H755   1.083   1_556  S
C748        H756   1.081       .  S
C749        H757   1.085       .  S
C749        C750   1.353       .  D
C750        H758   1.085       .  S
C751        H759   1.087       .  S
C751        C752   1.352       .  D
C752        H760   1.084   1_556  S
C761        C762   1.405       .  A
C761        C766   1.409       .  A
C761        C769   1.494       .  S
C762        C763   1.399       .  A
C762        H771   1.083       .  S
C763        C764   1.408       .  A
C763        H772   1.081   1_545  S
C764        C765   1.405       .  A
C764        C767   1.495       .  S
C765        C766   1.402       .  A
C765        H773   1.083       .  S
C766        H774   1.080       .  S
C767        H775   1.087       .  S
C767        C768   1.349       .  D
C768        H776   1.084   1_545  S
C769        H777   1.085       .  S
C769        C770   1.351       .  D
C770        H778   1.084       .  S
C779        C780   1.405       .  A
C779        C784   1.407       .  A
C779        C787   1.493       .  S
C780        C781   1.401       .  A
C780        H789   1.083       .  S
C781        C782   1.408       .  A
C781        H790   1.081   1_455  S
C782        C783   1.405       .  A
C782        C785   1.493       .  S
C783        C784   1.400       .  A
C783        H791   1.083       .  S
C784        H792   1.081       .  S
C785        H793   1.087       .  S
C785        C786   1.350       .  D
C786        H794   1.084   1_455  S
C787        H795   1.085       .  S
C787        C788   1.350       .  D
C788        H796   1.085       .  S
C797        C798   1.403       .  A
C797        C802   1.411       .  A
C797        C805   1.498       .  S
C798        C799   1.403       .  A
C798        H807   1.083       .  S
C799        C800   1.411       .  A
C799        H808   1.081       .  S
C800        C801   1.404       .  A
C800        C803   1.497       .  S
C801        C802   1.402       .  A
C801        H809   1.083   1_556  S
C802        H810   1.082       .  S
C803        H811   1.087   1_556  S
C803        C804   1.347       .  D
C804        H812   1.085       .  S
C805        H813   1.085       .  S
C805        C806   1.348       .  D
C806        H814   1.086       .  S
C815        C816   1.407   1_556  A
C815        C820   1.411       .  A
C815        C823   1.510   1_556  S
C816        C817   1.407       .  A
C816        H825   1.083       .  S
C817        C818   1.412   1_554  A
C817        H826   1.080       .  S
C818        C819   1.409       .  A
C818        C821   1.513       .  S
C819        C820   1.409       .  A
C819        H827   1.083       .  S
C820        H828   1.081       .  S
C821        H829   1.087       .  S
C821        C822   1.355       .  D
C822        H830   1.083   1_556  S
C823        H831   1.085       .  S
C823        C824   1.356       .  D
C824        H832   1.084       .  S
C833        C834   1.404       .  A
C833        C838   1.408   1_545  A
C833        C841   1.493       .  S
C834        C835   1.402   1_545  A
C834        H843   1.083       .  S
C835        C836   1.410       .  A
C835        H844   1.080   1_565  S
C836        C837   1.404       .  A
C836        C839   1.494       .  S
C837        C838   1.399       .  A
C837        H845   1.083       .  S
C838        H846   1.081       .  S
C839        H847   1.083       .  S
C839        C840   1.351       .  D
C840        H848   1.084       .  S
C841        H849   1.085       .  S
C841        C842   1.349       .  D
C842        H850   1.085       .  S
C851        C852   1.405       .  A
C851        C856   1.408       .  A
C851        C859   1.496       .  S
C852        C853   1.405       .  A
C852        H861   1.083       .  S
C853        C854   1.411       .  A
C853        H862   1.081       .  S
C854        C855   1.404       .  A
C854        C857   1.496       .  S
C855        C856   1.399       .  A
C855        H863   1.083       .  S
C856        H864   1.081       .  S
C857        H865   1.084       .  S
C857        C858   1.351       .  D
C858        H866   1.084       .  S
C859        H867   1.086       .  S
C859        C860   1.348       .  D
C860        H868   1.085       .  S
C869        C870   1.404       .  A
C869        C874   1.408       .  A
C869        C877   1.491       .  S
C870        C871   1.400       .  A
C870        H879   1.083       .  S
C871        C872   1.407       .  A
C871        H880   1.082       .  S
C872        C873   1.406       .  A
C872        C875   1.493       .  S
C873        C874   1.405       .  A
C873        H881   1.083       .  S
C874        H882   1.082       .  S
C875        H883   1.087       .  S
C875        C876   1.347       .  D
C876        H884   1.086       .  S
C877        H885   1.086       .  S
C877        C878   1.349       .  D
C878        H886   1.086       .  S
C887        C888   1.404       .  A
C887        C892   1.409   1_545  A
C887        C895   1.494       .  S
C888        C889   1.402   1_545  A
C888        H897   1.083       .  S
C889        C890   1.411       .  A
C889        H898   1.080   1_565  S
C890        C891   1.404       .  A
C890        C893   1.496       .  S
C891        C892   1.400       .  A
C891        H899   1.083       .  S
C892        H900   1.081       .  S
C893        H901   1.084       .  S
C893        C894   1.350       .  D
C894        H902   1.084       .  S
C895        H903   1.085       .  S
C895        C896   1.349       .  D
C896        H904   1.085       .  S
C905        C910   1.410       .  A
C905        C913   1.501       .  S
C906        H915   1.083       .  S
C907        C908   1.410       .  A
C908        C909   1.406       .  A
C908        C911   1.501       .  S
C909        C910   1.404       .  A
C909        H917   1.083       .  S
C910        H918   1.081       .  S
C911        H919   1.087       .  S
C911        C912   1.351       .  D
C912        H920   1.085       .  S
C913        C914   1.352       .  D
C914        H922   1.085       .  S
C923        C924   1.404       .  A
C923        C928   1.410       .  A
C923        C931   1.496       .  S
C924        C925   1.403       .  A
C924        H933   1.083       .  S
C925        C926   1.410       .  A
C925        H934   1.082       .  S
C926        C927   1.403       .  A
C926        C929   1.494       .  S
C927        C928   1.401       .  A
C927        H935   1.083       .  S
C928        H936   1.082       .  S
C929        H937   1.087       .  S
C929        C930   1.347       .  D
C930        H938   1.085       .  S
C931        H939   1.084       .  S
C931        C932   1.349       .  D
C932        H940   1.086       .  S
C941        C942   1.406       .  A
C941        C946   1.412   1_455  A
C941        C949   1.503       .  S
C942        C943   1.404   1_455  A
C942        H951   1.083       .  S
C943        C944   1.411       .  A
C943        H952   1.080       .  S
C944        C945   1.405       .  A
C944        C947   1.501       .  S
C945        C946   1.402       .  A
C945        H953   1.083       .  S
C946        H954   1.079       .  S
C947        H955   1.084       .  S
C947        C948   1.352       .  D
C948        H956   1.083       .  S
C949        H957   1.086       .  S
C949        C950   1.350       .  D
C950        H958   1.083       .  S
C959        C960   1.409       .  A
C959        C964   1.408       .  A
C959        C967   1.502       .  S
C960        C961   1.408       .  A
C960        H969   1.083       .  S
C961        C962   1.409       .  A
C961        H970   1.081       .  S
C962        C963   1.405       .  A
C962        C965   1.497       .  S
C963        C964   1.398       .  A
C963        H971   1.084       .  S
C964        H972   1.080       .  S
C965        H973   1.085       .  S
C965        C966   1.354       .  D
C966        H974   1.084       .  S
C967        H975   1.087       .  S
C967        C968   1.353       .  D
C968        H976   1.083       .  S
C977        C978   1.406       .  A
C977        C982   1.410       .  A
C977        C985   1.498       .  S
C978        C979   1.404       .  A
C978        H987   1.083       .  S
C979        C980   1.407       .  A
C979        H988   1.083       .  S
C980        C981   1.405       .  A
C980        C983   1.495       .  S
C981        C982   1.405       .  A
C981        H989   1.083       .  S
C982        H990   1.082       .  S
C983        H991   1.087       .  S
C983        C984   1.350       .  D
C984        H992   1.087       .  S
C985        H993   1.087       .  S
C985        C986   1.350       .  D
C986        H994   1.086       .  S
C995        C996   1.407       .  A
C995       C1000   1.409       .  A
C995       C1003   1.504       .  S
C996        C997   1.407   1_655  A
C996       H1005   1.083       .  S
C997        C998   1.413   1_455  A
C997       H1006   1.079       .  S
C998        C999   1.406       .  A
C998       C1001   1.507   1_655  S
C999       C1000   1.403       .  A
C999       H1007   1.083       .  S
C1000      H1008   1.081       .  S
C1001      H1009   1.085       .  S
C1001      C1002   1.353       .  D
C1002      H1010   1.082       .  S
C1003      H1011   1.083       .  S
C1003      C1004   1.354       .  D
C1004      H1012   1.084       .  S
C1013      C1014   1.406       .  A
C1013      C1021   1.503       .  S
C1014      C1015   1.404       .  A
C1014      H1023   1.083   1_554  S
C1015      H1024   1.080   1_554  S
C1016      C1017   1.407       .  A
C1016      C1019   1.505       .  S
C1017      C1018   1.406       .  A
C1017      H1025   1.083       .  S
C1018      H1026   1.079       .  S
C1019      H1027   1.087       .  S
C1020      H1028   1.084       .  S
C1021      H1029   1.085       .  S
C1021      C1022   1.352       .  D
C1031      C1032   1.406       .  A
C1031      C1036   1.408       .  A
C1031      C1039   1.500       .  S
C1032      C1033   1.407       .  A
C1033      C1034   1.412       .  A
C1034      C1035   1.406       .  A
C1034      C1037   1.503       .  S
C1035      C1036   1.401       .  A
C1035      H1043   1.083       .  S
C1036      H1044   1.081   1_554  S
C1037      H1045   1.084       .  S
C1037      C1038   1.354       .  D
C1039      H1047   1.087       .  S
C1039      C1040   1.351   1_554  D
C1040      H1048   1.085       .  S
