geometry optimzed in LAMMPS
_audit_creation_date              2020-11-30 
_audit_creation_method            'lammps2cif' 
_symmetry_space_group_name_H-M    'P1' 
_symmetry_Int_Tables_number       1 
_symmetry_cell_setting            triclinic 
loop_ 
_symmetry_equiv_pos_as_xyz 
  x,y,z 
_cell_length_a                    50.37426773 
_cell_length_b                    50.44228680903252 
_cell_length_c                    50.36963223370432 
_cell_angle_alpha                 90.0353349893628 
_cell_angle_beta                  89.83119909403605 
_cell_angle_gamma                 89.90103291903617 
loop_ 
_atom_site_label 
_atom_site_type_symbol 
_atom_site_fract_x 
_atom_site_fract_y 
_atom_site_fract_z 
_atom_site_charge 
N1          N  0.77115075  0.51812321  0.75116331    -0.35400
N2          N  0.81202986  0.51570468  0.79190364    -0.56000
N3          N  0.85363524  0.51794232  0.75107693    -0.35400
N4          N  0.81227701  0.51736714  0.71036119    -0.56000
C5          C  0.75592082  0.51224831  0.77257615     0.28200
C6          C  0.75615180  0.51405927  0.72926373     0.28200
C7          C  0.86867791  0.51290200  0.77275789     0.28100
C8          C  0.86867276  0.51269524  0.72931041     0.28100
C9          C  0.79036329  0.51732654  0.80785218     0.36800
C10         C  0.83350860  0.51816610  0.80780579     0.36800
C11         C  0.79091778  0.52159113  0.69468720     0.36800
C12         C  0.83390376  0.52017708  0.69468008     0.36800
C13         C  0.73079406  0.50487993  0.76414881    -0.20700
C14         C  0.73091465  0.50611249  0.73687662    -0.20700
C15         C  0.89391229  0.50528760  0.76464854    -0.20700
C16         C  0.89386641  0.50503693  0.73727470    -0.20700
C17         C  0.79810548  0.52070748  0.83398604    -0.21800
C18         C  0.82533234  0.52122259  0.83398439    -0.21800
C19         C  0.79898243  0.52712427  0.66897127    -0.21800
C20         C  0.82616817  0.52624708  0.66895276    -0.21800
C21         C  0.76370436  0.51404620  0.79955994    -0.17100
C22         C  0.76421379  0.51829567  0.70262842    -0.17100
C23         C  0.86043357  0.51505578  0.70248027    -0.17100
C24         C  0.86038696  0.51520934  0.79964252    -0.17100
H25         H  0.71403731  0.49919953  0.77636857     0.15800
H26         H  0.71426906  0.50160031  0.72412168     0.15800
H27         H  0.91058393  0.50014007  0.77714223     0.15800
H28         H  0.91049710  0.49973000  0.72468770     0.15800
H29         H  0.78546284  0.52220304  0.85133694     0.14100
H30         H  0.83767158  0.52305344  0.85143751     0.14100
H31         H  0.78657273  0.53083757  0.65186139     0.14100
H32         H  0.83878842  0.52930630  0.65179882     0.14100
H33         H  0.78973742  0.52687343  0.75152304     0.27300
H34         H  0.83485691  0.52633253  0.75118016     0.27300
N35         N  0.51642306  0.75549132  0.76257559    -0.35400
N36         N  0.51404916  0.79489242  0.80467002    -0.56000
N37         N  0.50816105  0.75348046  0.84469188    -0.35400
N38         N  0.50773814  0.71414978  0.80253721    -0.56000
C39         C  0.51297108  0.77776834  0.74798803     0.28200
C40         C  0.51011844  0.73461788  0.74691413     0.28200
C41         C  0.50186790  0.77505736  0.85941191     0.28100
C42         C  0.50043288  0.73179102  0.85851571     0.28100
C43         C  0.51970616  0.81102748  0.78398382     0.36800
C44         C  0.51519613  0.81003134  0.82679151     0.36800
C45         C  0.51364177  0.69917573  0.78102790     0.36800
C46         C  0.51039516  0.69806834  0.82385846     0.36800
C47         C  0.50510359  0.77087055  0.72252066    -0.20700
C48         C  0.50332245  0.74365932  0.72184976    -0.20700
C49         C  0.49052550  0.76691909  0.88319015    -0.20700
C50         C  0.48962620  0.73961361  0.88261274    -0.20700
C51         C  0.52483840  0.83644655  0.79300286    -0.21800
C52         C  0.52188427  0.83586867  0.82004835    -0.21800
C53         C  0.52010113  0.67360463  0.78868466    -0.21800
C54         C  0.51818236  0.67292583  0.81579230    -0.21800
C55         C  0.51668929  0.80414589  0.75695783    -0.17100
C56         C  0.51122620  0.70759333  0.75441525    -0.17100
C57         C  0.50399759  0.70515019  0.85032096    -0.17100
C58         C  0.50707781  0.80178276  0.85245125    -0.17100
H59         H  0.50079680  0.78405912  0.70614310     0.15800
H60         H  0.49745754  0.73190250  0.70487668     0.15800
H61         H  0.48373214  0.77932858  0.89938321     0.15800
H62         H  0.48192625  0.72696882  0.89817459     0.15800
H63         H  0.52915775  0.85385512  0.78120970     0.14100
H64         H  0.52349053  0.85286003  0.83305203     0.14100
H65         H  0.52549580  0.65709550  0.77602335     0.14100
H66         H  0.52189717  0.65575258  0.82810702     0.14100
H67         H  0.52462948  0.75439323  0.78148041     0.27300
H68         H  0.51943702  0.75339661  0.82735933     0.27300
N69         N  0.74653499  0.76456812  0.48924543    -0.35400
N70         N  0.78739433  0.80562783  0.49031768    -0.56000
N71         N  0.74663849  0.84648479  0.48857181    -0.35400
N72         N  0.70599651  0.80514617  0.49019849    -0.56000
C73         C  0.76817119  0.74970553  0.49488695     0.28200
C74         C  0.72491655  0.74946507  0.49438015     0.28200
C75         C  0.76831742  0.86170064  0.49297881     0.28100
C76         C  0.72499779  0.86134448  0.49449732     0.28100
C77         C  0.80304326  0.78400897  0.48721473     0.36800
C78         C  0.80306531  0.82698374  0.48610843     0.36800
C79         C  0.69022199  0.78377392  0.48671855     0.36800
C80         C  0.69031485  0.82667401  0.48729186     0.36800
C81         C  0.76022677  0.72474258  0.50325612    -0.20700
C82         C  0.73293564  0.72462720  0.50304011    -0.20700
C83         C  0.76035230  0.88674840  0.50111498    -0.20700
C84         C  0.73300644  0.88647697  0.50222690    -0.20700
C85         C  0.82882879  0.79165427  0.48148112    -0.21800
C86         C  0.82886124  0.81882465  0.48078346    -0.21800
C87         C  0.66443319  0.79173797  0.48149202    -0.21800
C88         C  0.66446040  0.81889648  0.48193529    -0.21800
C89         C  0.79485779  0.75747460  0.49100850    -0.17100
C90         C  0.69818448  0.75721469  0.49061596    -0.17100
C91         C  0.69824269  0.85312829  0.49208416    -0.17100
C92         C  0.79498811  0.85378171  0.48885463    -0.17100
H93         H  0.77276840  0.70822455  0.50880653     0.15800
H94         H  0.72044902  0.70805286  0.50850152     0.15800
H95         H  0.77291871  0.90346274  0.50585870     0.15800
H96         H  0.72045360  0.90298503  0.50788747     0.15800
H97         H  0.84593736  0.77899274  0.47842802     0.14100
H98         H  0.84607032  0.83112726  0.47715442     0.14100
H99         H  0.64725638  0.77928074  0.47831889     0.14100
H100        H  0.64725440  0.83146730  0.47917645     0.14100
H101        H  0.74663045  0.78264355  0.47975622     0.27300
H102        H  0.74655885  0.82811071  0.47967042     0.27300
Zn103      Zn  0.56579944  0.49331822  0.96516680     1.49700
Zn104      Zn  0.53499730  0.44090397  0.98796625     1.49400
Zn105      Zn  0.51330966  0.46946917  0.93491258     1.49100
Zn106      Zn  0.56787237  0.43993742  0.93593155     1.49500
O107        O  0.54484327  0.46168323  0.95650599    -1.83000
O108        O  0.57141036  0.49447076  0.00573294    -0.73600
O109        O  0.49503121  0.43408728  0.98925636    -0.73400
O110        O  0.51029168  0.50970452  0.92960490    -0.72900
O111        O  0.54618652  0.46115998  0.02019757    -0.73600
O112        O  0.54485943  0.52521395  0.95259109    -0.73200
O113        O  0.48041610  0.45548590  0.95348507    -0.73800
O114        O  0.54816350  0.42239373  0.90761269    -0.73200
O115        O  0.55563881  0.40579296  0.99048080    -0.73900
O116        O  0.51358219  0.44849889  0.89974337    -0.73300
O117        O  0.58351163  0.41129729  0.95697784    -0.73800
O118        O  0.59736169  0.45962993  0.91927557    -0.73700
O119        O  0.60147427  0.49556675  0.94400232    -0.73500
C120        C  0.56159413  0.48066413  0.02472972     0.78300
C121        C  0.47613849  0.44127088  0.97399365     0.78800
C122        C  0.52436443  0.52899388  0.93817677     0.77800
C123        C  0.52773680  0.42819448  0.89420163     0.78100
C124        C  0.57584547  0.39830202  0.97708720     0.79300
C125        C  0.60961294  0.48082867  0.92495366     0.78300
Zn126      Zn  0.51024147  0.53322230  0.56579284     1.49700
Zn127      Zn  0.56645716  0.51396464  0.53845138     1.49400
Zn128      Zn  0.53367609  0.56347636  0.51428630     1.49100
Zn129      Zn  0.56192476  0.56644363  0.56989670     1.49500
O130        O  0.54254672  0.54372718  0.54667195    -1.83000
O131        O  0.51080796  0.49326304  0.57089656    -0.73600
O132        O  0.57330151  0.51217105  0.49823758    -0.73400
O133        O  0.49351126  0.56882459  0.51189711    -0.72900
O134        O  0.54823019  0.48058693  0.55058400    -0.73600
O135        O  0.47788125  0.54385717  0.54477169    -0.73200
O136        O  0.54626822  0.54306404  0.48203315    -0.73800
O137        O  0.57619338  0.59670497  0.55016780    -0.73200
O138        O  0.60136534  0.51451122  0.56015610    -0.73900
O139        O  0.55408109  0.59867950  0.51231097    -0.73300
O140        O  0.59230405  0.54836437  0.58656344    -0.73800
O141        O  0.54069982  0.57991241  0.59977807    -0.73700
O142        O  0.50611195  0.55276849  0.60162531    -0.73500
C143        C  0.52720643  0.47525930  0.56371001     0.78300
C144        C  0.56298579  0.52436508  0.47848964     0.78800
C145        C  0.47401508  0.55904469  0.52492435     0.77800
C146        C  0.57161682  0.60784158  0.52809448     0.78100
C147        C  0.60684708  0.52879271  0.58035565     0.79300
C148        C  0.51977748  0.57180930  0.61113672     0.78300
Zn149      Zn  0.48620230  0.96752456  0.56337700     1.49700
Zn150      Zn  0.43487767  0.99153979  0.53434187     1.49400
Zn151      Zn  0.46288712  0.93785226  0.51116791     1.49100
Zn152      Zn  0.43217808  0.93686804  0.56525141     1.49500
O153        O  0.45422504  0.95883353  0.54312214    -1.83000
O154        O  0.48887227  0.00716280  0.57020519    -0.73600
O155        O  0.42881516  0.99304183  0.49412156    -0.73400
O156        O  0.50284154  0.93062468  0.50968748    -0.72900
O157        O  0.45560871  0.02387544  0.54664838    -0.73600
O158        O  0.51813569  0.95514844  0.54303308    -0.73200
O159        O  0.45167804  0.95845004  0.47876685    -0.73800
O160        O  0.41718592  0.90664908  0.54518150    -0.73200
O161        O  0.39954723  0.99363686  0.55479934    -0.73900
O162        O  0.44100400  0.90335781  0.50836920    -0.73300
O163        O  0.40086958  0.95651846  0.57854677    -0.73800
O164        O  0.45204678  0.92282102  0.59636579    -0.73700
O165        O  0.48838525  0.94734821  0.59840345    -0.73500
C166        C  0.47564908  0.02704908  0.56176721     0.78300
C167        C  0.43715639  0.97878654  0.47476658     0.78800
C168        C  0.52213688  0.93966216  0.52343264     0.77800
C169        C  0.42223011  0.89515832  0.52331111     0.78100
C170        C  0.38969629  0.97818226  0.57229274     0.79300
C171        C  0.47362044  0.92911053  0.60779647     0.78300
N172        N  0.51141186  0.24919989  0.73836754    -0.35400
N173        N  0.50812498  0.29021755  0.69812117    -0.56000
N174        N  0.51228588  0.25052865  0.65644610    -0.35400
N175        N  0.51370937  0.20968282  0.69718696    -0.56000
C176        C  0.50352706  0.27031973  0.75286513     0.28200
C177        C  0.50505929  0.22726749  0.75237669     0.28200
C178        C  0.50482060  0.27203792  0.64218253     0.28100
C179        C  0.50688248  0.22870619  0.64175421     0.28100
C180        C  0.51313890  0.30513352  0.71980650     0.36800
C181        C  0.51310839  0.30585332  0.67696501     0.36800
C182        C  0.51834980  0.19417711  0.71855916     0.36800
C183        C  0.51913206  0.19480521  0.67554985     0.36800
C184        C  0.49223183  0.26186993  0.77648173    -0.20700
C185        C  0.49296168  0.23459613  0.77608005    -0.20700
C186        C  0.49507604  0.26386609  0.61781935    -0.20700
C187        C  0.49635673  0.23650054  0.61754649    -0.20700
C188        C  0.52131930  0.33028218  0.71249976    -0.21800
C189        C  0.52141364  0.33072352  0.68530532    -0.21800
C190        C  0.52729006  0.16946942  0.71056344    -0.21800
C191        C  0.52765963  0.16978893  0.68331505    -0.21800
C192        C  0.50830792  0.29692060  0.74603925    -0.17100
C193        C  0.51123931  0.20099262  0.74481427    -0.17100
C194        C  0.51242491  0.20214394  0.64929489    -0.17100
C195        C  0.50777500  0.29876579  0.65037793    -0.17100
H196        H  0.48439740  0.27409732  0.79234919     0.15800
H197        H  0.48570429  0.22168727  0.79163266     0.15800
H198        H  0.48783730  0.27631033  0.60190216     0.15800
H199        H  0.49039032  0.22382699  0.60128869     0.15800
H200        H  0.52631068  0.34668964  0.72540366     0.14100
H201        H  0.52662143  0.34758078  0.67308341     0.14100
H202        H  0.53199000  0.15264310  0.72302990     0.14100
H203        H  0.53263000  0.15308535  0.67077680     0.14100
H204        H  0.52327612  0.24992863  0.72142777     0.27300
H205        H  0.52280300  0.25087687  0.67418245     0.27300
Zn206      Zn  0.43081793  0.01147090  0.96666886     1.49700
Zn207      Zn  0.48204321  0.03533508  0.93640745     1.49400
Zn208      Zn  0.42829892  0.06505837  0.93644738     1.49100
Zn209      Zn  0.46021632  0.06354965  0.98975536     1.49500
O210        O  0.45086672  0.04348352  0.95779016    -1.83000
O211        O  0.45168264  0.97942294  0.95547951    -0.73600
O212        O  0.48276194  0.05619745  0.90142969    -0.73400
O213        O  0.39928819  0.04426191  0.92081612    -0.72900
O214        O  0.48390359  0.99559726  0.92993131    -0.73600
O215        O  0.39618759  0.00821325  0.94556407    -0.73200
O216        O  0.44728616  0.08170633  0.90633081    -0.73800
O217        O  0.43855262  0.09800434  0.99256735    -0.73200
O218        O  0.51464323  0.04747365  0.95590088    -0.73900
O219        O  0.41182623  0.09323968  0.95787418    -0.73300
O220        O  0.49997859  0.07089440  0.99039500    -0.73800
O221        O  0.44985027  0.04230862  0.02228402    -0.73700
O222        O  0.42426962  0.01001505  0.00638625    -0.73500
C223        C  0.47106394  0.97596625  0.93952688     0.78300
C224        C  0.46800906  0.07519810  0.89349670     0.78800
C225        C  0.38776855  0.02267996  0.92660432     0.77800
C226        C  0.41844125  0.10521288  0.97899125     0.78100
C227        C  0.51901009  0.06240011  0.97584459     0.79300
C228        C  0.43415991  0.02279389  0.02589442     0.78300
N229        N  0.74569132  0.23741618  0.01440143    -0.35400
N230        N  0.78503650  0.19585686  0.01127920    -0.56000
N231        N  0.74318842  0.15557006  0.00870333    -0.35400
N232        N  0.70417151  0.19774816  0.00931739    -0.56000
C233        C  0.76770263  0.25177328  0.00891343     0.28200
C234        C  0.72448142  0.25277888  0.00854094     0.28200
C235        C  0.76474867  0.14080211  0.00246382     0.28100
C236        C  0.72147978  0.14212917  0.00036810     0.28100
C237        C  0.80118014  0.21659236  0.01674693     0.36800
C238        C  0.79965136  0.17366010  0.01484380     0.36800
C239        C  0.68923713  0.21914773  0.01541782     0.36800
C240        C  0.68788690  0.17659700  0.01111463     0.36800
C241        C  0.76037751  0.27661911  0.99967267    -0.20700
C242        C  0.73307323  0.27724573  0.99940945    -0.20700
C243        C  0.75665213  0.11736140  0.99058288    -0.20700
C244        C  0.72930611  0.11823238  0.98920581    -0.20700
C245        C  0.82611413  0.20757810  0.02390554    -0.21800
C246        C  0.82516435  0.18039436  0.02272252    -0.21800
C247        C  0.66346840  0.21155409  0.02138283    -0.21800
C248        C  0.66257605  0.18458027  0.01853009    -0.21800
C249        C  0.79415800  0.24352775  0.01344205    -0.17100
C250        C  0.69762658  0.24558902  0.01229180    -0.17100
C251        C  0.69484336  0.15057970  0.00353202    -0.17100
C252        C  0.79140865  0.14769496  0.00795301    -0.17100
H253        H  0.77336062  0.29266255  0.99378374     0.15800
H254        H  0.72094502  0.29385951  0.99325247     0.15800
H255        H  0.76914772  0.10134193  0.98354509     0.15800
H256        H  0.71664477  0.10302024  0.98094763     0.15800
H257        H  0.84331898  0.21935223  0.02895132     0.14100
H258        H  0.84161625  0.16711332  0.02654081     0.14100
H259        H  0.64683473  0.22422286  0.02642284     0.14100
H260        H  0.64514120  0.17231427  0.02105981     0.14100
H261        H  0.74508746  0.21933137  0.02429027     0.27300
H262        H  0.74327664  0.17271831  0.02014777     0.27300
N263        N  0.23226086  0.99092614  0.75190791    -0.35400
N264        N  0.19320414  0.99749003  0.70973866    -0.56000
N265        N  0.15090752  0.00079340  0.74866623    -0.35400
N266        N  0.19029866  0.99700515  0.79071760    -0.56000
C267        C  0.24822989  0.99631805  0.73095299     0.28200
C268        C  0.24667729  0.99500496  0.77415468     0.28200
C269        C  0.13770071  0.00770562  0.72634584     0.28100
C270        C  0.13642043  0.00936727  0.76966128     0.28100
C271        C  0.21479304  0.99009023  0.69553460     0.36800
C272        C  0.17196928  0.99308820  0.69400567     0.36800
C273        C  0.21027005  0.98950837  0.80696225     0.36800
C274        C  0.16779144  0.99579414  0.80530459     0.36800
C275        C  0.27318984  0.00347406  0.73991560    -0.20700
C276        C  0.27220417  0.00271524  0.76721324    -0.20700
C277        C  0.11441777  0.02075780  0.73320928    -0.20700
C278        C  0.11359729  0.02178508  0.76060987    -0.20700
C279        C  0.20735812  0.98098004  0.67073613    -0.21800
C280        C  0.18019366  0.98249932  0.66988658    -0.21800
C281        C  0.20041079  0.98334096  0.83190018    -0.21800
C282        C  0.17353455  0.98748928  0.83092038    -0.21800
C283        C  0.24123073  0.99320153  0.70402162    -0.17100
C284        C  0.23750879  0.99116803  0.80045848    -0.17100
C285        C  0.14254649  0.00443868  0.79661259    -0.17100
C286        C  0.14564356  0.00095397  0.70019050    -0.17100
H287        H  0.29035977  0.00859436  0.72802433     0.15800
H288        H  0.28846235  0.00737610  0.78040031     0.15800
H289        H  0.09946609  0.02847350  0.71988897     0.15800
H290        H  0.09784607  0.03036153  0.77250397     0.15800
H291        H  0.22018303  0.97397282  0.65493350     0.14100
H292        H  0.16797749  0.97684210  0.65319054     0.14100
H293        H  0.21153010  0.97725623  0.84921829     0.14100
H294        H  0.15989296  0.98516628  0.84739015     0.14100
H295        H  0.21361139  0.98239724  0.75101891     0.27300
H296        H  0.16717230  0.98826665  0.74952562     0.27300
N297        N  0.99023925  0.75627515  0.23295162    -0.35400
N298        N  0.99593267  0.71443053  0.19384227    -0.56000
N299        N  0.99178769  0.75366915  0.15092139    -0.35400
N300        N  0.98900399  0.79535108  0.19070584    -0.56000
C301        C  0.99651692  0.73546928  0.24862428     0.28200
C302        C  0.99546953  0.77856994  0.24689621     0.28200
C303        C  0.99993371  0.73206040  0.13706691     0.28100
C304        C  0.99600890  0.77533120  0.13551516     0.28100
C305        C  0.99034709  0.69960864  0.21558632     0.36800
C306        C  0.99290436  0.69827649  0.17261578     0.36800
C307        C  0.98446059  0.81135214  0.21176675     0.36800
C308        C  0.98390999  0.80993950  0.16882967     0.36800
C309        C  0.00564528  0.74456634  0.27291193    -0.20700
C310        C  0.00512081  0.77180724  0.27178107    -0.20700
C311        C  0.00896873  0.74003661  0.11229975    -0.20700
C312        C  0.00648618  0.76732101  0.11131970    -0.20700
C313        C  0.98382978  0.67400911  0.20814559    -0.21800
C314        C  0.98557126  0.67312069  0.18099592    -0.21800
C315        C  0.97621701  0.83613923  0.20332201    -0.21800
C316        C  0.97580737  0.83525249  0.17611666    -0.21800
C317        C  0.99240276  0.70855402  0.24213095    -0.17100
C318        C  0.99033487  0.80476181  0.23830280    -0.17100
C319        C  0.98992196  0.80196519  0.14255185    -0.17100
C320        C  0.99818329  0.70532656  0.14584992    -0.17100
H321        H  0.01188650  0.73278684  0.28973773     0.15800
H322        H  0.01083597  0.78508998  0.28764313     0.15800
H323        H  0.01651499  0.72749690  0.09654344     0.15800
H324        H  0.01177928  0.77982504  0.09467925     0.15800
H325        H  0.97843887  0.65761072  0.22089277     0.14100
H326        H  0.98172655  0.65588133  0.16880364     0.14100
H327        H  0.97167629  0.85326819  0.21548073     0.14100
H328        H  0.97100159  0.85168638  0.16317803     0.14100
H329        H  0.98006091  0.75518230  0.21506097     0.27300
H330        H  0.98166181  0.75335689  0.16891585     0.27300
N331        N  0.24816651  0.73455850  0.49557163    -0.35400
N332        N  0.20837392  0.69268504  0.49612879    -0.56000
N333        N  0.25024581  0.65286558  0.49064706    -0.35400
N334        N  0.28979228  0.69522577  0.49292627    -0.56000
C335        C  0.22646793  0.74834869  0.50339077     0.28200
C336        C  0.26961592  0.74975387  0.50092621     0.28200
C337        C  0.22899454  0.63695447  0.49481199     0.28100
C338        C  0.27239868  0.63836674  0.49547053     0.28100
C339        C  0.19214949  0.71405317  0.49440649     0.36800
C340        C  0.19324406  0.67117875  0.49087551     0.36800
C341        C  0.30478700  0.71715180  0.48935025     0.36800
C342        C  0.30600052  0.67425031  0.48892702     0.36800
C343        C  0.23419474  0.77259883  0.51377878    -0.20700
C344        C  0.26144116  0.77350247  0.51219560    -0.20700
C345        C  0.23774209  0.61176040  0.50149517    -0.20700
C346        C  0.26510604  0.61269584  0.50209839    -0.20700
C347        C  0.16658065  0.70607209  0.48831538    -0.21800
C348        C  0.16723247  0.67896047  0.48620888    -0.21800
C349        C  0.33060132  0.71010630  0.48291596    -0.21800
C350        C  0.33140666  0.68292728  0.48275180    -0.21800
C351        C  0.19982222  0.74057678  0.49940242    -0.17100
C352        C  0.29623098  0.74327095  0.49468502    -0.17100
C353        C  0.29898890  0.64746856  0.49337044    -0.17100
C354        C  0.20198021  0.64446091  0.49215359    -0.17100
H355        H  0.22147120  0.78817465  0.52139543     0.15800
H356        H  0.27379338  0.78988610  0.51843254     0.15800
H357        H  0.22566697  0.59454848  0.50576814     0.15800
H358        H  0.27813664  0.59628809  0.50680525     0.15800
H359        H  0.14918292  0.71843276  0.48585712     0.14100
H360        H  0.15036605  0.66641271  0.48194474     0.14100
H361        H  0.34730235  0.72316381  0.47954690     0.14100
H362        H  0.34885204  0.67090910  0.47904339     0.14100
H363        H  0.24810188  0.71736289  0.48421501     0.27300
H364        H  0.24962924  0.67189571  0.48288138     0.27300
N365        N  0.73485509  0.49199992  0.25083991    -0.35400
N366        N  0.69445014  0.48904146  0.29236457    -0.56000
N367        N  0.65309815  0.49173389  0.25195709    -0.35400
N368        N  0.69388208  0.49188277  0.21047430    -0.56000
C369        C  0.75040893  0.48724709  0.27213686     0.28200
C370        C  0.75006339  0.48875781  0.22890552     0.28200
C371        C  0.63801560  0.48730306  0.27382421     0.28100
C372        C  0.63781122  0.48715896  0.23033982     0.28100
C373        C  0.71617357  0.49232958  0.30776613     0.36800
C374        C  0.67316259  0.49262636  0.30841302     0.36800
C375        C  0.71518604  0.49629835  0.19466839     0.36800
C376        C  0.67216993  0.49514353  0.19512563     0.36800
C377        C  0.77590855  0.48108659  0.26365008    -0.20700
C378        C  0.77567250  0.48196024  0.23637356    -0.20700
C379        C  0.61266165  0.48010841  0.26604682    -0.20700
C380        C  0.61255624  0.47989776  0.23862207    -0.20700
C381        C  0.70866139  0.49708838  0.33381657    -0.21800
C382        C  0.68149189  0.49734339  0.33423168    -0.21800
C383        C  0.70702867  0.50206286  0.16909301    -0.21800
C384        C  0.67984428  0.50123379  0.16932580    -0.21800
C385        C  0.74280136  0.49055582  0.29897343    -0.17100
C386        C  0.74195680  0.49345529  0.20245672    -0.17100
C387        C  0.64557178  0.49105312  0.20347009    -0.17100
C388        C  0.64622614  0.49089667  0.30051640    -0.17100
H389        H  0.79306392  0.47684604  0.27581768     0.15800
H390        H  0.79260543  0.47849509  0.22355004     0.15800
H391        H  0.59595506  0.47557269  0.27880842     0.15800
H392        H  0.59567647  0.47530505  0.22620820     0.15800
H393        H  0.72140864  0.50013336  0.35080365     0.14100
H394        H  0.66930550  0.50064703  0.35165640     0.14100
H395        H  0.71937464  0.50602678  0.15192999     0.14100
H396        H  0.66726568  0.50444275  0.15225240     0.14100
H397        H  0.71603983  0.50032380  0.25139607     0.27300
H398        H  0.67175310  0.50037501  0.25185553     0.27300
Zn399      Zn  0.97188968  0.57904167  0.45632056     1.49700
Zn400      Zn  0.97988028  0.51987380  0.47675986     1.49400
Zn401      Zn  0.92162117  0.54483378  0.47102671     1.49100
Zn402      Zn  0.95555520  0.52978505  0.41981276     1.49500
O403        O  0.95719875  0.54337180  0.45593601    -1.83000
O404        O  0.00873489  0.57906180  0.47243011    -0.73600
O405        O  0.96356059  0.51519774  0.51377108    -0.73400
O406        O  0.91031423  0.58248008  0.47730258    -0.72900
O407        O  0.01676624  0.53628657  0.48014925    -0.73600
O408        O  0.94700539  0.60632637  0.47277403    -0.73200
O409        O  0.92175810  0.52780298  0.50686136    -0.73800
O410        O  0.91780858  0.52271564  0.41029849    -0.73200
O411        O  0.98350871  0.48381266  0.45831524    -0.73900
O412        O  0.89375120  0.52919643  0.44668872    -0.73300
O413        O  0.97346996  0.49389353  0.41661129    -0.73800
O414        O  0.96818714  0.55690781  0.39281701    -0.73700
O415        O  0.97571660  0.59153286  0.41888214    -0.73500
C416        C  0.02452962  0.56034833  0.47893454     0.78300
C417        C  0.93977490  0.51862072  0.52203314     0.78800
C418        C  0.92228051  0.60465085  0.47799557     0.77800
C419        C  0.89560435  0.52253102  0.42234709     0.78100
C420        C  0.98134457  0.47717740  0.43391557     0.79300
C421        C  0.97391299  0.58134504  0.39584448     0.78300
Zn422      Zn  0.06543881  0.93165690  0.43689702     1.49700
Zn423      Zn  0.01151771  0.96374762  0.43514231     1.49400
Zn424      Zn  0.03126234  0.93399223  0.48883786     1.49100
Zn425      Zn  0.06207997  0.98621714  0.46723517     1.49500
O426        O  0.04224274  0.95421346  0.45735384    -1.83000
O427        O  0.04828272  0.91920903  0.40402394    -0.73600
O428        O  0.97777304  0.95251108  0.45343303    -0.73400
O429        O  0.05049812  0.89818646  0.49204554    -0.72900
O430        O  0.01188719  0.94346440  0.39988212    -0.73600
O431        O  0.07627269  0.89930448  0.45630307    -0.73200
O432        O  0.99108186  0.92888839  0.48828955    -0.73800
O433        O  0.06514973  0.98874091  0.50742747    -0.73200
O434        O  0.00987844  0.00366404  0.42863239    -0.73900
O435        O  0.04214217  0.95382357  0.52178560    -0.73300
O436        O  0.04331040  0.01848576  0.45330769    -0.73800
O437        O  0.09869507  0.98781917  0.44941660    -0.73700
O438        O  0.09799279  0.95057019  0.42617299    -0.73500
C439        C  0.02756854  0.92550237  0.39123946     0.78300
C440        C  0.97261796  0.93788062  0.47341185     0.78800
C441        C  0.06855756  0.88800923  0.47744519     0.77800
C442        C  0.05606622  0.97441783  0.52627367     0.78100
C443        C  0.02394228  0.02266187  0.43764684     0.79300
C444        C  0.10919425  0.97220235  0.43243757     0.78300
Zn445      Zn  0.92297396  0.45838303  0.02944154     1.49700
Zn446      Zn  0.98156414  0.48168733  0.02221031     1.49400
Zn447      Zn  0.95733952  0.47309421  0.08038838     1.49100
Zn448      Zn  0.97198321  0.42244132  0.04494650     1.49500
O449        O  0.95858711  0.45891990  0.04425163    -1.83000
O450        O  0.92278565  0.47549720  0.99338715    -0.73600
O451        O  0.98792430  0.51755874  0.04074841    -0.73400
O452        O  0.91937686  0.47969284  0.09132470    -0.72900
O453        O  0.96424159  0.48856201  0.98604813    -0.73600
O454        O  0.89604637  0.47493841  0.05429603    -0.73200
O455        O  0.97475191  0.50921675  0.08202172    -0.73800
O456        O  0.97973758  0.41136617  0.08264681    -0.73200
O457        O  0.01692839  0.46267743  0.01595521    -0.73900
O458        O  0.97330397  0.44733512  0.10723359    -0.73300
O459        O  0.00747178  0.42089100  0.02651987    -0.73800
O460        O  0.94555365  0.39529872  0.03012302    -0.73700
O461        O  0.91041387  0.42095187  0.02377925    -0.73500
C462        C  0.94040306  0.48536286  0.97808946     0.78300
C463        C  0.98453495  0.52500688  0.06480007     0.78800
C464        C  0.89740275  0.48068675  0.07889979     0.77800
C465        C  0.98021870  0.42306467  0.10506865     0.78100
C466        C  0.02366506  0.43830229  0.01782151     0.79300
C467        C  0.92111504  0.39807298  0.02406674     0.78300
N468        N  0.25883158  0.01222283  0.25225023    -0.35400
N469        N  0.29859345  0.00982013  0.21091110    -0.56000
N470        N  0.34097783  0.01390231  0.25091112    -0.35400
N471        N  0.30077464  0.01387929  0.29188077    -0.56000
C472        C  0.24386583  0.00466937  0.23129400     0.28200
C473        C  0.24504632  0.00618449  0.27452715     0.28200
C474        C  0.35530214  0.00778268  0.22900294     0.28100
C475        C  0.35620189  0.00829873  0.27236826     0.28100
C476        C  0.27674732  0.01301987  0.19559643     0.36800
C477        C  0.31977209  0.01431388  0.19501096     0.36800
C478        C  0.27951022  0.01827248  0.30763870     0.36800
C479        C  0.32242188  0.01809980  0.30704800     0.36800
C480        C  0.22020675  0.99391649  0.24032835    -0.20700
C481        C  0.22099040  0.99476503  0.26763642    -0.20700
C482        C  0.38027347  0.99898242  0.23654173    -0.20700
C483        C  0.38078977  0.99918201  0.26393426    -0.20700
C484        C  0.28407068  0.01947842  0.16988951    -0.21800
C485        C  0.31129644  0.02020423  0.16948044    -0.21800
C486        C  0.28766699  0.02581639  0.33280064    -0.21800
C487        C  0.31486849  0.02550200  0.33248603    -0.21800
C488        C  0.25036489  0.00876590  0.20426061    -0.17100
C489        C  0.25317794  0.01173554  0.30082420    -0.17100
C490        C  0.34865217  0.01198720  0.29925218    -0.17100
C491        C  0.34665448  0.01076895  0.20243818    -0.17100
H492        H  0.20405074  0.98629049  0.22845485     0.15800
H493        H  0.20551240  0.98790174  0.28088621     0.15800
H494        H  0.39638797  0.99287050  0.22364980     0.15800
H495        H  0.39739252  0.99335160  0.27622122     0.15800
H496        H  0.27120239  0.02300791  0.15309069     0.14100
H497        H  0.32347865  0.02427263  0.15222461     0.14100
H498        H  0.27530889  0.02994381  0.34993196     0.14100
H499        H  0.32759811  0.02942937  0.34930235     0.14100
H500        H  0.27605564  0.02352619  0.25136951     0.27300
H501        H  0.32269773  0.02346498  0.25095585     0.27300
Zn502      Zn  0.02125185  0.08167197  0.03950256     1.49700
Zn503      Zn  0.07208753  0.04670658  0.02673405     1.49400
Zn504      Zn  0.03534922  0.03108243  0.07484308     1.49100
Zn505      Zn  0.01348698  0.02306136  0.01608526     1.49500
O506        O  0.03548307  0.04555199  0.03916244    -1.83000
O507        O  0.04687284  0.10904571  0.02437314    -0.73600
O508        O  0.09886487  0.03063259  0.05271982    -0.73400
O509        O  0.02053944  0.05694514  0.10151573    -0.72900
O510        O  0.08338234  0.08466808  0.02141541    -0.73600
O511        O  0.01488411  0.09314434  0.07708103    -0.73200
O512        O  0.07251789  0.02425952  0.08737861    -0.73800
O513        O  0.00671117  0.98696535  0.03380721    -0.73200
O514        O  0.07395733  0.02982460  0.99076611    -0.73900
O515        O  0.01666967  0.99589761  0.07584567    -0.73300
O516        O  0.03280281  0.01752219  0.98057846    -0.73800
O517        O  0.97748495  0.04117557  0.00999151    -0.73700
O518        O  0.98543932  0.08285198  0.02202636    -0.73500
C519        C  0.07177937  0.10708474  0.02014862     0.78300
C520        C  0.09558655  0.02432857  0.07702988     0.78800
C521        C  0.01492970  0.08148652  0.09946431     0.77800
C522        C  0.00798638  0.98003390  0.05818794     0.78100
C523        C  0.05721749  0.02060803  0.97423105     0.79300
C524        C  0.96983772  0.06518185  0.01292748     0.78300
N525        N  0.01364698  0.25309835  0.26483010    -0.35400
N526        N  0.01345473  0.29146114  0.30764990    -0.56000
N527        N  0.01313580  0.24885035  0.34699415    -0.35400
N528        N  0.01078501  0.21050591  0.30340863    -0.56000
C529        C  0.00840974  0.27550426  0.25109794     0.28200
C530        C  0.00744770  0.23245753  0.24888879     0.28200
C531        C  0.00699444  0.26992834  0.36261688     0.28100
C532        C  0.00615728  0.22655020  0.36032537     0.28100
C533        C  0.01731273  0.30817635  0.28697900     0.36800
C534        C  0.01675989  0.30594629  0.32997314     0.36800
C535        C  0.01555449  0.19623232  0.28113758     0.36800
C536        C  0.01511757  0.19400649  0.32407365     0.36800
C537        C  0.99901833  0.26899465  0.22605164    -0.20700
C538        C  0.99845685  0.24180078  0.22464935    -0.20700
C539        C  0.99667426  0.26087656  0.38648524    -0.20700
C540        C  0.99608687  0.23354757  0.38502338    -0.20700
C541        C  0.02324256  0.33333742  0.29615616    -0.21800
C542        C  0.02285489  0.33196538  0.32335781    -0.21800
C543        C  0.02297381  0.17061684  0.28759265    -0.21800
C544        C  0.02296133  0.16925547  0.31478603    -0.21800
C545        C  0.01309381  0.30163450  0.26004001    -0.17100
C546        C  0.01135694  0.20547231  0.25506612    -0.17100
C547        C  0.00931269  0.20010754  0.35096297    -0.17100
C548        C  0.01087311  0.29704153  0.35601375    -0.17100
H549        H  0.99333108  0.28243100  0.21030847     0.15800
H550        H  0.99233423  0.23023326  0.20763454     0.15800
H551        H  0.99004687  0.27273198  0.40315757     0.15800
H552        H  0.98884139  0.22037207  0.40035337     0.15800
H553        H  0.02669636  0.35101028  0.28447872     0.14100
H554        H  0.02588235  0.34848991  0.33671744     0.14100
H555        H  0.02762623  0.15453249  0.27411492     0.14100
H556        H  0.02766873  0.15181837  0.32637089     0.14100
H557        H  0.02369666  0.25191934  0.28277495     0.27300
H558        H  0.02343649  0.24953146  0.32910370     0.27300
N559        N  0.24476276  0.26676368  0.99855712    -0.35400
N560        N  0.20687122  0.30897306  0.99355415    -0.56000
N561        N  0.25013563  0.34802663  0.99158277    -0.35400
N562        N  0.28799586  0.30532982  0.99926537    -0.56000
C563        C  0.22212368  0.25337734  0.00393688     0.28200
C564        C  0.26525187  0.25141383  0.00647980     0.28200
C565        C  0.22893159  0.36399959  0.99592533     0.28100
C566        C  0.27225971  0.36197824  0.99779773     0.28100
C567        C  0.19022460  0.28821220  0.99014348     0.36800
C568        C  0.19311376  0.33097659  0.98693784     0.36800
C569        C  0.30193802  0.28262964  0.99607501     0.36800
C570        C  0.30471335  0.32526850  0.99282314     0.36800
C571        C  0.22834915  0.22919507  0.01549476    -0.20700
C572        C  0.25562182  0.22791160  0.01698635    -0.20700
C573        C  0.23771708  0.38860745  0.00449088    -0.20700
C574        C  0.26505881  0.38731981  0.00568319    -0.20700
C575        C  0.16581426  0.29699766  0.98117009    -0.21800
C576        C  0.16756163  0.32408050  0.97929208    -0.21800
C577        C  0.32757246  0.28813150  0.98773491    -0.21800
C578        C  0.32929944  0.31513218  0.98554580    -0.21800
C579        C  0.19620056  0.26171856  0.99701135    -0.17100
C580        C  0.29232147  0.25706091  0.00194032    -0.17100
C581        C  0.29872395  0.35254967  0.99552686    -0.17100
C582        C  0.20201726  0.35724543  0.99125329    -0.17100
H583        H  0.21469672  0.21385856  0.02175005     0.15800
H584        H  0.26708570  0.21138203  0.02449371     0.15800
H585        H  0.22569439  0.40576261  0.00929558     0.15800
H586        H  0.27812755  0.40322036  0.01169838     0.15800
H587        H  0.14836406  0.28521742  0.97706113     0.14100
H588        H  0.15154192  0.33718854  0.97361442     0.14100
H589        H  0.34342720  0.27416445  0.98374238     0.14100
H590        H  0.34675622  0.32604002  0.97943394     0.14100
H591        H  0.24642200  0.28369221  0.98692364     0.27300
H592        H  0.24964586  0.32948141  0.98256813     0.27300
C593        C  0.13092925  0.15224241  0.00747048    -0.27000
C594        C  0.11899246  0.17730178  0.00561398     0.06600
C595        C  0.09120032  0.17922660  0.00797826     0.26200
C596        C  0.07584104  0.15637881  0.01226754    -0.11500
C597        C  0.08788707  0.13121899  0.01435778    -0.25500
C598        C  0.11575867  0.12952625  0.01186859     0.37000
C599        C  0.13618738  0.20092641  0.00153141     0.06600
F600        F  0.07887438  0.20306470  0.00572825    -0.19300
H601        H  0.05451142  0.15842982  0.01409117     0.16400
F602        F  0.12866033  0.10599901  0.01417537    -0.23000
H603        H  0.15230701  0.15029227  0.00599100     0.18200
C604        C  0.13568852  0.22248127  0.01932242     0.26200
C605        C  0.15468514  0.24269883  0.01727225    -0.11500
C606        C  0.17440893  0.24173433  0.99751203    -0.25500
C607        C  0.17420599  0.22083176  0.97909223     0.37100
C608        C  0.15531831  0.20064477  0.98114790    -0.27200
F609        F  0.11793070  0.22318534  0.03962791    -0.19300
H610        H  0.15461338  0.25866246  0.03166458     0.16400
F611        F  0.19275126  0.21963676  0.95952469    -0.23000
H612        H  0.15602273  0.18433252  0.96716262     0.18200
C613        C  0.98683353  0.15350655  0.20663708    -0.27000
C614        C  0.00925320  0.15000734  0.19044910     0.06600
C615        C  0.03235217  0.16469771  0.19554361     0.26200
C616        C  0.03295378  0.18266610  0.21666837    -0.11500
C617        C  0.01063578  0.18596497  0.23304524    -0.25500
C618        C  0.98752984  0.17128597  0.22794528     0.37000
C619        C  0.00848559  0.13120069  0.16808758     0.06600
F620        F  0.05410625  0.16193268  0.17980266    -0.19300
H621        H  0.05078322  0.19407039  0.22028573     0.16400
F622        F  0.96563188  0.17443804  0.24338773    -0.23000
H623        H  0.96888681  0.14235752  0.20280655     0.18200
C624        C  0.02277163  0.10733617  0.16922358     0.26200
C625        C  0.02337745  0.09039166  0.14728251    -0.11500
C626        C  0.01025880  0.09732217  0.12369309    -0.25500
C627        C  0.99534424  0.12095394  0.12287914     0.37100
C628        C  0.99431535  0.13761485  0.14506150    -0.27200
F629        F  0.03661249  0.10076518  0.19134958    -0.19300
H630        H  0.03521374  0.07247212  0.14831428     0.16400
F631        F  0.98216160  0.12816644  0.10054116    -0.23000
H632        H  0.98317087  0.15597054  0.14400945     0.18200
C633        C  0.16592540  0.00964505  0.10157456    -0.27000
C634        C  0.16260458  0.01206260  0.12925891     0.06600
C635        C  0.13689129  0.01664196  0.13929080     0.26200
C636        C  0.11540770  0.01974972  0.12212544    -0.11500
C637        C  0.11873850  0.01835622  0.09442314    -0.25500
C638        C  0.14425022  0.01272770  0.08427668     0.37000
C639        C  0.18580527  0.01109363  0.14769280     0.06600
F640        F  0.13241293  0.01817236  0.16583909    -0.19300
H641        H  0.09610290  0.02393477  0.13069370     0.16400
F642        F  0.14832916  0.01034907  0.05773567    -0.23000
H643        H  0.18545980  0.00615054  0.09324699     0.18200
C644        C  0.20538832  0.99113585  0.14592371     0.26200
C645        C  0.22642744  0.99037521  0.16419057    -0.11500
C646        C  0.22829651  0.00943557  0.18448793    -0.25500
C647        C  0.20894282  0.02943058  0.18606289     0.37100
C648        C  0.18815517  0.03034446  0.16777940    -0.27200
F649        F  0.20379319  0.97194343  0.12710348    -0.19300
H650        H  0.24114032  0.97475827  0.16270732     0.16400
F651        F  0.21028446  0.04824718  0.20528691    -0.23000
H652        H  0.17382768  0.04630536  0.16930874     0.18200
C653        C  0.14576850  0.39498359  0.02253221    -0.27000
C654        C  0.13232472  0.40453609  0.00010092     0.06600
C655        C  0.14456843  0.40258380  0.97503550     0.26200
C656        C  0.16885415  0.38918593  0.97232569    -0.11500
C657        C  0.18109925  0.37775881  0.99458492    -0.25500
C658        C  0.16994890  0.38169548  0.01983707     0.37000
C659        C  0.10434362  0.41324538  0.00285712     0.06600
F660        F  0.13200055  0.41155359  0.95299505    -0.19300
H661        H  0.17710382  0.38600221  0.95269791     0.16400
F662        F  0.18141758  0.37077911  0.04160859    -0.23000
H663        H  0.13673706  0.39652379  0.04202134     0.18200
C664        C  0.08547352  0.39564605  0.01334790     0.26200
C665        C  0.05928306  0.40378748  0.01727235    -0.11500
C666        C  0.05118789  0.42975897  0.01101852    -0.25500
C667        C  0.07001499  0.44723165  0.99981264     0.37100
C668        C  0.09632880  0.43890560  0.99564973    -0.27200
F669        F  0.09242416  0.37044696  0.01983480    -0.19300
H670        H  0.04544892  0.38974765  0.02581871     0.16400
F671        F  0.06320722  0.47241084  0.99320881    -0.23000
H672        H  0.11061387  0.45267970  0.98741033     0.18200
C673        C  0.99102929  0.40174729  0.17690392    -0.27000
C674        C  0.00189634  0.37625509  0.17368728     0.06600
C675        C  0.00657636  0.36681466  0.14778299     0.26200
C676        C  0.00009012  0.38241679  0.12575899    -0.11500
C677        C  0.98866234  0.40773353  0.12890660    -0.25500
C678        C  0.98449186  0.41736739  0.15486746     0.37000
C679        C  0.00625197  0.35897760  0.19726757     0.06600
F680        F  0.01611080  0.34196196  0.14362256    -0.19300
H681        H  0.00355235  0.37434305  0.10612058     0.16400
F682        F  0.97328075  0.44148567  0.15910020    -0.23000
H683        H  0.98721025  0.40946195  0.19662539     0.18200
C684        C  0.02994770  0.34445340  0.20062078     0.26200
C685        C  0.03251925  0.32660566  0.22174926    -0.11500
C686        C  0.01175125  0.32323431  0.24003852    -0.25500
C687        C  0.98859733  0.33848915  0.23745386     0.37100
C688        C  0.98590006  0.35616540  0.21624911    -0.27200
F689        F  0.05057958  0.34744295  0.18350120    -0.19300
H690        H  0.05048918  0.31492625  0.22355075     0.16400
F691        F  0.96813819  0.33533558  0.25475451    -0.23000
H692        H  0.96744348  0.36699021  0.21411396     0.18200
C693        C  0.98814485  0.13314508  0.37815975    -0.27000
C694        C  0.00593282  0.12961642  0.39931450     0.06600
C695        C  0.02210286  0.15117074  0.40685089     0.26200
C696        C  0.02224615  0.17460347  0.39191405    -0.11500
C697        C  0.00573229  0.17734217  0.36969524    -0.25500
C698        C  0.98767731  0.15686859  0.36380922     0.37000
C699        C  0.00975291  0.10274242  0.41116707     0.06600
F700        F  0.03837329  0.14930911  0.42820589    -0.19300
H701        H  0.03602809  0.19022791  0.39706398     0.16400
F702        F  0.97077149  0.15916709  0.34298995    -0.23000
H703        H  0.97556851  0.11702368  0.37168710     0.18200
C704        C  0.98820913  0.08571986  0.41672181     0.26200
C705        C  0.99274298  0.05958589  0.42522149    -0.11500
C706        C  0.01872777  0.05022252  0.42902123    -0.25500
C707        C  0.04013916  0.06737691  0.42406647     0.37100
C708        C  0.03566259  0.09311031  0.41496529    -0.27200
F709        F  0.96280978  0.09435712  0.41420349    -0.19300
H710        H  0.97596070  0.04675997  0.42914062     0.16400
F711        F  0.06557039  0.05886259  0.42681347    -0.23000
H712        H  0.05267987  0.10525695  0.41005477     0.18200
C713        C  0.21974950  0.98265893  0.36139289    -0.27000
C714        C  0.19751539  0.99924306  0.36443973     0.06600
C715        C  0.19411346  0.02069432  0.34686989     0.26200
C716        C  0.21230154  0.02485995  0.32621822    -0.11500
C717        C  0.23397519  0.00768993  0.32282832    -0.25500
C718        C  0.23764743  0.98661687  0.34063331     0.37000
C719        C  0.17674798  0.99227929  0.38414321     0.06600
F720        F  0.17261583  0.03683214  0.34888885    -0.19300
H721        H  0.20932551  0.04122264  0.31262668     0.16400
F722        F  0.25832990  0.96958001  0.33756673    -0.23000
H723        H  0.22289900  0.96616421  0.37478546     0.18200
C724        C  0.16665206  0.96636035  0.38475276     0.26200
C725        C  0.14585485  0.95990417  0.40174101    -0.11500
C726        C  0.13414355  0.97912424  0.41831001    -0.25500
C727        C  0.14491712  0.00490175  0.41856974     0.37100
C728        C  0.16607186  0.01135899  0.40155680    -0.27200
F729        F  0.17580666  0.94752603  0.36774673    -0.19300
H730        H  0.13819907  0.93986450  0.40102937     0.16400
F731        F  0.13441494  0.02410447  0.43431212    -0.23000
H732        H  0.17380307  0.03138010  0.40161644     0.18200
C733        C  0.98872875  0.41506384  0.39122785    -0.27000
C734        C  0.99427241  0.39549746  0.41021574     0.06600
C735        C  0.99676416  0.40302607  0.43695370     0.26200
C736        C  0.99312761  0.42963103  0.44450448    -0.11500
C737        C  0.98710487  0.44928715  0.42552338    -0.25500
C738        C  0.98524021  0.44158440  0.39862794     0.37000
C739        C  0.99705564  0.36743032  0.40151411     0.06600
F740        F  0.00179390  0.38453772  0.45584908    -0.19300
H741        H  0.99455212  0.43473681  0.46533423     0.16400
F742        F  0.97973961  0.45952203  0.37932554    -0.23000
H743        H  0.98701610  0.40971163  0.37046611     0.18200
C744        C  0.97616927  0.35498932  0.38789015     0.26200
C745        C  0.98017068  0.33053696  0.37539331    -0.11500
C746        C  0.00508716  0.31809340  0.37603853    -0.25500
C747        C  0.02550860  0.32953964  0.39119420     0.37100
C748        C  0.02142541  0.35401044  0.40396785    -0.27200
F749        F  0.95225830  0.36718923  0.38551980    -0.19300
H750        H  0.96432864  0.32215739  0.36357142     0.16400
F751        F  0.04992284  0.31814599  0.39182557    -0.23000
H752        H  0.03779603  0.36329608  0.41428449     0.18200
C753        C  0.79693926  0.47609520  0.34909789    -0.27000
C754        C  0.80439781  0.50185480  0.35662068     0.06600
C755        C  0.79148243  0.52372901  0.34513162     0.26200
C756        C  0.77149342  0.51978489  0.32639173    -0.11500
C757        C  0.76409124  0.49406493  0.31891347    -0.25500
C758        C  0.77680170  0.47217262  0.33046301     0.37000
C759        C  0.82700097  0.50574560  0.37484262     0.06600
F760        F  0.79889377  0.54885627  0.35125334    -0.19300
H761        H  0.76184869  0.53679962  0.31749574     0.16400
F762        F  0.76994326  0.44713004  0.32345152    -0.23000
H763        H  0.80685724  0.45904043  0.35760433     0.18200
C764        C  0.82440683  0.52064246  0.39832661     0.26200
C765        C  0.84656565  0.52513715  0.41445279    -0.11500
C766        C  0.87163200  0.51516259  0.40715906    -0.25500
C767        C  0.87391109  0.49968099  0.38396930     0.37100
C768        C  0.85176645  0.49496676  0.36812876    -0.27200
F769        F  0.80051848  0.53087593  0.40557623    -0.19300
H770        H  0.84429658  0.53715279  0.43214664     0.16400
F771        F  0.89760953  0.48922570  0.37641036    -0.23000
H772        H  0.85409955  0.48342114  0.35012244     0.18200
C773        C  0.79162115  0.47182107  0.15025849    -0.27000
C774        C  0.80432871  0.49582528  0.14410046     0.06600
C775        C  0.79555115  0.51935166  0.15636036     0.26200
C776        C  0.77491214  0.51858699  0.17503575    -0.11500
C777        C  0.76278418  0.49443225  0.18159092    -0.25500
C778        C  0.77103295  0.47108803  0.16886886     0.37000
C779        C  0.82744297  0.49555640  0.12584202     0.06600
F780        F  0.80684205  0.54298394  0.15019966    -0.19300
H781        H  0.76852888  0.53675271  0.18461238     0.16400
F782        F  0.75957657  0.44753250  0.17499102    -0.23000
H783        H  0.79817709  0.45347717  0.14114281     0.18200
C784        C  0.85236065  0.50473624  0.13428559     0.26200
C785        C  0.87485601  0.50075937  0.11842707    -0.11500
C786        C  0.87293850  0.48774586  0.09379451    -0.25500
C787        C  0.84772036  0.47974903  0.08481360     0.37100
C788        C  0.82528776  0.48350731  0.10081789    -0.27200
F789        F  0.85526776  0.51601879  0.15857730    -0.19300
H790        H  0.89396086  0.50720263  0.12581419     0.16400
F791        F  0.84486020  0.46690239  0.06131242    -0.23000
H792        H  0.80624699  0.47627264  0.09400972     0.18200
C793        C  0.10001675  0.56000721  0.47728789    -0.27000
C794        C  0.10589054  0.58358289  0.49096714     0.06600
C795        C  0.08483375  0.59845244  0.50188080     0.26200
C796        C  0.05854192  0.59031988  0.49848823    -0.11500
C797        C  0.05259869  0.56699478  0.48456970    -0.25500
C798        C  0.07362088  0.55156697  0.47435769     0.37000
C799        C  0.13348690  0.59407381  0.49195311     0.06600
F800        F  0.08955838  0.62169346  0.51459702    -0.19300
H801        H  0.04268975  0.60256279  0.50639463     0.16400
F802        F  0.06858401  0.52920570  0.46024449    -0.23000
H803        H  0.11586899  0.54837929  0.46850905     0.18200
C804        C  0.14466831  0.60252974  0.51610130     0.26200
C805        C  0.16817541  0.61730297  0.51621039    -0.11500
C806        C  0.18108794  0.62359274  0.49232760    -0.25500
C807        C  0.17116874  0.61335237  0.46838335     0.37100
C808        C  0.14756454  0.59864598  0.46824117    -0.27200
F809        F  0.13222446  0.59747153  0.53948735    -0.19300
H810        H  0.17559545  0.62504979  0.53482171     0.16400
F811        F  0.18325601  0.61924932  0.44501126    -0.23000
H812        H  0.13937988  0.59231605  0.44941822     0.18200
C813        C  0.10483506  0.82331611  0.46980411    -0.27000
C814        C  0.11771489  0.82103070  0.49437845     0.06600
C815        C  0.11117574  0.83904313  0.51479880     0.26200
C816        C  0.09313891  0.85976287  0.51001797    -0.11500
C817        C  0.08180991  0.86296739  0.48477602    -0.25500
C818        C  0.08721935  0.84409398  0.46495634     0.37000
C819        C  0.13938662  0.80119946  0.49723713     0.06600
F820        F  0.12369277  0.83790190  0.53859165    -0.19300
H821        H  0.08953764  0.87437161  0.52539073     0.16400
F822        F  0.07626096  0.84640906  0.44046536    -0.23000
H823        H  0.10923378  0.80948126  0.45392008     0.18200
C824        C  0.13998047  0.78288089  0.51831310     0.26200
C825        C  0.15975372  0.76326473  0.51919927    -0.11500
C826        C  0.17918002  0.76174387  0.49917837    -0.25500
C827        C  0.17895808  0.78043678  0.47855559     0.37100
C828        C  0.15927183  0.79990174  0.47762994    -0.27200
F829        F  0.12094487  0.78329535  0.53742288    -0.19300
H830        H  0.15976706  0.74903663  0.53529343     0.16400
F831        F  0.19755886  0.77950592  0.45901230    -0.23000
H832        H  0.15940668  0.81393958  0.46135979     0.18200
C833        C  0.99228269  0.92100712  0.10213921    -0.27000
C834        C  0.99489598  0.89976152  0.08439072     0.06600
C835        C  0.99902784  0.90507877  0.05730793     0.26200
C836        C  0.00181278  0.93136768  0.04844117    -0.11500
C837        C  0.00059941  0.95267776  0.06650812    -0.25500
C838        C  0.99491868  0.94716247  0.09338167     0.37000
C839        C  0.99503036  0.87233994  0.09499524     0.06600
F840        F  0.00161732  0.88484552  0.03971961    -0.19300
H841        H  0.00616322  0.93495255  0.02768467     0.16400
F842        F  0.99243326  0.96703740  0.11141192    -0.23000
H843        H  0.98880603  0.91724645  0.12303918     0.18200
C844        C  0.01714377  0.86314627  0.10924616     0.26200
C845        C  0.01605079  0.83895731  0.12278633    -0.11500
C846        C  0.99282590  0.82361482  0.12259036    -0.25500
C847        C  0.97099988  0.83229618  0.10752189     0.37100
C848        C  0.97219606  0.85645692  0.09368674    -0.27200
F849        F  0.03933413  0.87825536  0.11114315    -0.19300
H850        H  0.03280272  0.83290305  0.13479639     0.16400
F851        F  0.94797539  0.81837884  0.10777920    -0.23000
H852        H  0.95484458  0.86345109  0.08313149     0.18200
C853        C  0.98261302  0.65285557  0.09404960    -0.27000
C854        C  0.00207306  0.63368304  0.09973387     0.06600
C855        C  0.02257680  0.64018469  0.11744327     0.26200
C856        C  0.02255576  0.66468166  0.13055292    -0.11500
C857        C  0.00190238  0.68303299  0.12654630    -0.25500
C858        C  0.98242669  0.67732833  0.10742201     0.37000
C859        C  0.99888772  0.60589760  0.09031874     0.06600
F860        F  0.04179875  0.62219965  0.12316242    -0.19300
H861        H  0.03768578  0.66863815  0.14526561     0.16400
F862        F  0.96207046  0.69448187  0.10330864    -0.23000
H863        H  0.96656790  0.64816909  0.08058143     0.18200
C864        C  0.99272298  0.58586584  0.10865867     0.26200
C865        C  0.98878254  0.55975296  0.10020025    -0.11500
C866        C  0.99098537  0.55275322  0.07319828    -0.25500
C867        C  0.99764592  0.57285990  0.05480730     0.37100
C868        C  0.00131085  0.59919737  0.06334469    -0.27200
F869        F  0.98971304  0.59175917  0.13480245    -0.19300
H870        H  0.98359479  0.54501678  0.11494543     0.16400
F871        F  0.00009103  0.56730218  0.02855046    -0.23000
H872        H  0.00604136  0.61438562  0.04890522     0.18200
C873        C  0.96706582  0.67393687  0.30410541    -0.27000
C874        C  0.98479865  0.65258232  0.30637051     0.06600
C875        C  0.00510553  0.64954576  0.28741234     0.26200
C876        C  0.00769214  0.66780807  0.26663640    -0.11500
C877        C  0.98983554  0.68911073  0.26428192    -0.25500
C878        C  0.96944652  0.69199139  0.28321442     0.37000
C879        C  0.98243158  0.63407703  0.32902323     0.06600
F880        F  0.02282838  0.62935485  0.28945224    -0.19300
H881        H  0.02366502  0.66541987  0.25238814     0.16400
F882        F  0.95175661  0.71223553  0.28137490    -0.23000
H883        H  0.95126122  0.67652548  0.31851354     0.18200
C884        C  0.98403535  0.64361877  0.35512488     0.26200
C885        C  0.98185429  0.62621458  0.37652424    -0.11500
C886        C  0.97761565  0.59891695  0.37245550    -0.25500
C887        C  0.97560844  0.58943204  0.34618947     0.37100
C888        C  0.97828539  0.60689765  0.32471516    -0.27200
F889        F  0.98802938  0.66979521  0.35993265    -0.19300
H890        H  0.98319083  0.63431340  0.39639201     0.16400
F891        F  0.97068453  0.56346800  0.34116337    -0.23000
H892        H  0.97665262  0.59929879  0.30466777     0.18200
C893        C  0.97913756  0.84966132  0.29766469    -0.27000
C894        C  0.00244772  0.86486405  0.29725543     0.06600
C895        C  0.02067929  0.86158100  0.27634190     0.26200
C896        C  0.01606305  0.84265511  0.25666042    -0.11500
C897        C  0.99336767  0.82663177  0.25773385    -0.25500
C898        C  0.97463348  0.83054296  0.27806608     0.37000
C899        C  0.00921954  0.88162393  0.32025812     0.06600
F900        F  0.04325160  0.87621986  0.27540393    -0.19300
H901        H  0.03060871  0.83984186  0.24102070     0.16400
F902        F  0.95249853  0.81529582  0.27936020    -0.23000
H903        H  0.96505270  0.85179110  0.31382169     0.18200
C904        C  0.99335533  0.90326637  0.32784743     0.26200
C905        C  0.99962682  0.91789265  0.35064681    -0.11500
C906        C  0.02166931  0.91096557  0.36629945    -0.25500
C907        C  0.03757453  0.88922948  0.35834072     0.37100
C908        C  0.03137670  0.87491510  0.33553603    -0.27200
F909        F  0.97193759  0.91028043  0.31314855    -0.19300
H910        H  0.98706515  0.93444819  0.35618880     0.16400
F911        F  0.05880084  0.88118801  0.37283546    -0.23000
H912        H  0.04358846  0.85804390  0.33009541     0.18200
C913        C  0.09255209  0.98905999  0.85020302    -0.27000
C914        C  0.09425542  0.01201621  0.86584217     0.06600
C915        C  0.10851528  0.03397875  0.85621765     0.26200
C916        C  0.12225824  0.03230906  0.83211552    -0.11500
C917        C  0.12203454  0.00871621  0.81738079    -0.25500
C918        C  0.10646106  0.98734447  0.82614545     0.37000
C919        C  0.08428056  0.01188201  0.89349884     0.06600
F920        F  0.11027800  0.05651290  0.87086243    -0.19300
H921        H  0.13451856  0.04877552  0.82579680     0.16400
F922        F  0.10671999  0.96406476  0.81263214    -0.23000
H923        H  0.08193118  0.97187240  0.85748359     0.18200
C924        C  0.05714481  0.00937669  0.89946213     0.26200
C925        C  0.04833451  0.01104013  0.92589919    -0.11500
C926        C  0.06654013  0.01489381  0.94673817    -0.25500
C927        C  0.09388977  0.01568859  0.94058214     0.37100
C928        C  0.10249981  0.01443044  0.91427766    -0.27200
F929        F  0.03915857  0.00646111  0.87967335    -0.19300
H930        H  0.02722702  0.01022796  0.92994147     0.16400
F931        F  0.11247269  0.01818166  0.95988819    -0.23000
H932        H  0.12356493  0.01569108  0.91004093     0.18200
C933        C  0.08810220  0.98414467  0.65463929    -0.27000
C934        C  0.09560332  0.99744950  0.63124605     0.06600
C935        C  0.11759369  0.01460139  0.63198591     0.26200
C936        C  0.13230099  0.01744564  0.65526936    -0.11500
C937        C  0.12612764  0.00248288  0.67797757    -0.25500
C938        C  0.10332265  0.98644067  0.67777512     0.37000
C939        C  0.08217744  0.99170778  0.60560774     0.06600
F940        F  0.12622270  0.02696233  0.60964562    -0.19300
H941        H  0.14978404  0.02992511  0.65502721     0.16400
F942        F  0.09673103  0.97174063  0.69936282    -0.23000
H943        H  0.07103857  0.97111350  0.65467512     0.18200
C944        C  0.07857197  0.96536347  0.59711277     0.26200
C945        C  0.06885300  0.96005360  0.57170097    -0.11500
C946        C  0.06306502  0.98078972  0.55403560    -0.25500
C947        C  0.06576991  0.00711703  0.56274678     0.37100
C948        C  0.07500755  0.01246884  0.58839901    -0.27200
F949        F  0.08606915  0.94470687  0.61266244    -0.19300
H950        H  0.06714887  0.93960796  0.56532977     0.16400
F951        F  0.05959105  0.02762847  0.54645752    -0.23000
H952        H  0.07718666  0.03290156  0.59462796     0.18200
C953        C  0.84353065  0.09554393  0.02208202    -0.27000
C954        C  0.86085156  0.09959021  0.00052124     0.06600
C955        C  0.85271895  0.11597600  0.97948808     0.26200
C956        C  0.82882697  0.12991873  0.98113725    -0.11500
C957        C  0.81265157  0.12770217  0.00370624    -0.25500
C958        C  0.81951798  0.10958683  0.02373245     0.37000
C959        C  0.88866314  0.09002636  0.00175197     0.06600
F960        F  0.86867830  0.11969818  0.95806291    -0.19300
H961        H  0.82370521  0.14379202  0.96555131     0.16400
F962        F  0.80404957  0.10705112  0.04569361    -0.23000
H963        H  0.84945084  0.08296746  0.03845832     0.18200
C964        C  0.90952954  0.10847041  0.00140865     0.26200
C965        C  0.93579433  0.10003376  0.00393983    -0.11500
C966        C  0.94198975  0.07301035  0.00696038    -0.25500
C967        C  0.92106185  0.05442984  0.00687518     0.37100
C968        C  0.89461480  0.06297022  0.00448633    -0.27200
F969        F  0.90440213  0.13486577  0.99984685    -0.19300
H970        H  0.95132444  0.11485670  0.00416089     0.16400
F971        F  0.92597032  0.02820010  0.01032167    -0.23000
H972        H  0.87874911  0.04851318  0.00503090     0.18200
C973        C  0.83338884  0.30402589  0.03473431    -0.27000
C974        C  0.85203145  0.30660181  0.01407485     0.06600
C975        C  0.85259122  0.28729770  0.99387030     0.26200
C976        C  0.83427409  0.26632783  0.99407213    -0.11500
C977        C  0.81522320  0.26428261  0.01441769    -0.25500
C978        C  0.81517140  0.28314660  0.03493337     0.37000
C979        C  0.87005409  0.32997585  0.01365694     0.06600
F980        F  0.87002313  0.28936519  0.97338500    -0.19300
H981        H  0.83445090  0.25206436  0.97799054     0.16400
F982        F  0.79716146  0.28154948  0.05496432    -0.23000
H983        H  0.83279905  0.31843201  0.05068480     0.18200
C984        C  0.85951977  0.35569967  0.01583361     0.26200
C985        C  0.87631383  0.37759485  0.01813214    -0.11500
C986        C  0.90410370  0.37451482  0.01846809    -0.25500
C987        C  0.91471038  0.34882782  0.01497427     0.37100
C988        C  0.89777817  0.32682147  0.01255191    -0.27200
F989        F  0.83285113  0.35965964  0.01599545    -0.19300
H990        H  0.86737906  0.39700245  0.02047587     0.16400
F991        F  0.94135238  0.34485646  0.01427319    -0.23000
H992        H  0.90633572  0.30719212  0.01071124     0.18200
C993        C  0.39504925  0.03001661  0.14839719    -0.27000
C994        C  0.39526950  0.00693707  0.13269532     0.06600
C995        C  0.38236613  0.98407969  0.14220749     0.26200
C996        C  0.36791782  0.98500787  0.16592021    -0.11500
C997        C  0.36637378  0.00856165  0.18063402    -0.25500
C998        C  0.38066799  0.03087402  0.17218806     0.37000
C999        C  0.40683450  0.00781113  0.10554252     0.06600
F1000       F  0.38308611  0.96108652  0.12821234    -0.19300
H1001       H  0.35694319  0.96767392  0.17227620     0.16400
F1002       F  0.37924927  0.05393167  0.18602768    -0.23000
H1003       H  0.40478666  0.04786623  0.14149115     0.18200
C1004       C  0.39174533  0.99984059  0.08345556     0.26200
C1005       C  0.40147202  0.00350559  0.05771754    -0.11500
C1006       C  0.42613111  0.01572119  0.05334246    -0.25500
C1007       C  0.44162216  0.02295674  0.07544524     0.37100
C1008       C  0.43201930  0.01896096  0.10125393    -0.27200
F1009       F  0.36678061  0.99022754  0.08659742    -0.19300
H1010       H  0.38898663  0.99804022  0.04112638     0.16400
F1011       F  0.46585897  0.03423218  0.07217320    -0.23000
H1012       H  0.44401553  0.02515407  0.11795146     0.18200
C1013       C  0.32986971  0.98407449  0.89666964    -0.27000
C1014       C  0.32076084  0.00234307  0.87769129     0.06600
C1015       C  0.33384444  0.02668445  0.87489166     0.26200
C1016       C  0.35527103  0.03289032  0.89103244    -0.11500
C1017       C  0.36442442  0.01499393  0.91039839    -0.25500
C1018       C  0.35154973  0.99031714  0.91301569     0.37000
C1019       C  0.29760683  0.99664120  0.86065310     0.06600
F1020       F  0.32616992  0.04437938  0.85609396    -0.19300
H1021       H  0.36476899  0.05192227  0.88815333     0.16400
F1022       F  0.35992111  0.97221941  0.93108477    -0.23000
H1023       H  0.32002460  0.96514075  0.89897572     0.18200
C1024       C  0.29784260  0.97530440  0.84269371     0.26200
C1025       C  0.27767376  0.97290336  0.82374625    -0.11500
C1026       C  0.25719011  0.99181579  0.82243686    -0.25500
C1027       C  0.25648652  0.01251271  0.84111057     0.37100
C1028       C  0.27641858  0.01473695  0.86011710    -0.27200
F1029       F  0.31839472  0.95787132  0.84236491    -0.19300
H1030       H  0.27852329  0.95688972  0.80943088     0.16400
F1031       F  0.23720385  0.03131993  0.84012490    -0.23000
H1032       H  0.27595466  0.03131772  0.87379751     0.18200
C1033       C  0.33180205  0.19881663  0.97658763    -0.27000
C1034       C  0.34883393  0.19350814  0.99798451     0.06600
C1035       C  0.34740986  0.20947124  0.02084608     0.26200
C1036       C  0.32870295  0.23000146  0.02237306    -0.11500
C1037       C  0.31135203  0.23472265  0.00113684    -0.25500
C1038       C  0.31316059  0.21917980  0.97815373     0.37000
C1039       C  0.36697355  0.17048086  0.99636555     0.06600
F1040       F  0.36354591  0.20475410  0.04185457    -0.19300
H1041       H  0.32766559  0.24219186  0.04005546     0.16400
F1042       F  0.29709050  0.22402138  0.95710958    -0.23000
H1043       H  0.33291789  0.18704550  0.95861902     0.18200
C1044       C  0.35677239  0.14559841  0.98926479     0.26200
C1045       C  0.37381845  0.12435393  0.98479530    -0.11500
C1046       C  0.40135123  0.12729795  0.98758463    -0.25500
C1047       C  0.41166108  0.15177708  0.99593277     0.37100
C1048       C  0.39448212  0.17331573  0.00024082    -0.27200
F1049       F  0.33025162  0.14194554  0.98622616    -0.19300
H1050       H  0.36548759  0.10555514  0.97859088     0.16400
F1051       F  0.43825953  0.15530079  0.99821192    -0.23000
H1052       H  0.40270208  0.19242121  0.00553200     0.18200
C1053       C  0.59280949  0.07578583  0.96717898    -0.27000
C1054       C  0.59840892  0.09113556  0.98963749     0.06600
C1055       C  0.57824886  0.09569321  0.00846271     0.26200
C1056       C  0.55265024  0.08569851  0.00431201    -0.11500
C1057       C  0.54675237  0.07081520  0.98142679    -0.25500
C1058       C  0.56740558  0.06550388  0.96313121     0.37000
C1059       C  0.62464909  0.10406606  0.99209180     0.06600
F1060       F  0.58297616  0.11089471  0.03018320    -0.19300
H1061       H  0.53730075  0.09014312  0.01874862     0.16400
F1062       F  0.56300620  0.05116231  0.94076724    -0.23000
H1063       H  0.60812510  0.07212438  0.95247333     0.18200
C1064       C  0.64122715  0.09921401  0.01397402     0.26200
C1065       C  0.66516968  0.11304856  0.01668740    -0.11500
C1066       C  0.67267911  0.13204512  0.99778401    -0.25500
C1067       C  0.65647880  0.13628014  0.97548709     0.37100
C1068       C  0.63278770  0.12221856  0.97260633    -0.27200
F1069       F  0.63402270  0.08146309  0.03288636    -0.19300
H1070       H  0.67726447  0.10987130  0.03414452     0.16400
F1071       F  0.66292923  0.15503912  0.95726690    -0.23000
H1072       H  0.62020708  0.12627210  0.95567249     0.18200
C1073       C  0.51703743  0.15948205  0.80741676    -0.27000
C1074       C  0.49622133  0.14131774  0.80392167     0.06600
C1075       C  0.48143051  0.14200520  0.78029238     0.26200
C1076       C  0.48708686  0.16087382  0.76080080    -0.11500
C1077       C  0.50741372  0.17946180  0.76459891    -0.25500
C1078       C  0.52259689  0.17847371  0.78794765     0.37000
C1079       C  0.48890960  0.12294424  0.82566878     0.06600
F1080       F  0.46136398  0.12456834  0.77617982    -0.19300
H1081       H  0.47513587  0.16147062  0.74296306     0.16400
F1082       F  0.54229408  0.19630540  0.79215478    -0.23000
H1083       H  0.52843084  0.15947947  0.82562144     0.18200
C1084       C  0.50773541  0.10583255  0.83710008     0.26200
C1085       C  0.50071931  0.08967474  0.85863465    -0.11500
C1086       C  0.47489405  0.09053863  0.86928318    -0.25500
C1087       C  0.45592902  0.10729694  0.85726859     0.37100
C1088       C  0.46295449  0.12324653  0.83574826    -0.27200
F1089       F  0.53286446  0.10472580  0.82737503    -0.19300
H1090       H  0.51567645  0.07696578  0.86736811     0.16400
F1091       F  0.43054076  0.10849837  0.86633645    -0.23000
H1092       H  0.44818725  0.13637378  0.82728717     0.18200
C1093       C  0.38190337  0.97787358  0.35713688    -0.27000
C1094       C  0.39604641  0.99882708  0.36886323     0.06600
C1095       C  0.39714372  0.02336692  0.35552918     0.26200
C1096       C  0.38312261  0.02717862  0.33179787    -0.11500
C1097       C  0.36798049  0.00656521  0.32091292    -0.25500
C1098       C  0.36793138  0.98169834  0.33346296     0.37000
C1099       C  0.40848333  0.99506509  0.39543682     0.06600
F1100       F  0.41148841  0.04374431  0.36562257    -0.19300
H1101       H  0.38316682  0.04652120  0.32247822     0.16400
F1102       F  0.35318074  0.96153132  0.32349605    -0.23000
H1103       H  0.38071771  0.95880665  0.36694548     0.18200
C1104       C  0.40325972  0.01272739  0.41649447     0.26200
C1105       C  0.41340909  0.00783518  0.44190959    -0.11500
C1106       C  0.42884586  0.98515889  0.44706041    -0.25500
C1107       C  0.43450188  0.96775936  0.42575526     0.37100
C1108       C  0.42433223  0.97269606  0.40037793    -0.27200
F1109       F  0.38713938  0.03399954  0.41291353    -0.19300
H1110       H  0.40849904  0.02150859  0.45777040     0.16400
F1111       F  0.44916655  0.94546227  0.42943672    -0.23000
H1112       H  0.42859754  0.95877359  0.38453942     0.18200
C1113       C  0.34877378  0.78941660  0.52166979    -0.27000
C1114       C  0.35358784  0.80615290  0.49990058     0.06600
C1115       C  0.34022163  0.80144297  0.47588463     0.26200
C1116       C  0.32169864  0.78077363  0.47411897    -0.11500
C1117       C  0.31654294  0.76452701  0.49616810    -0.25500
C1118       C  0.33047718  0.76874534  0.51984652     0.37000
C1119       C  0.37063200  0.82976633  0.50365816     0.06600
F1120       F  0.34420215  0.81747825  0.45462231    -0.19300
H1121       H  0.31107420  0.77764294  0.45572187     0.16400
F1122       F  0.32583581  0.75324963  0.54137891    -0.23000
H1123       H  0.35886708  0.79277554  0.54033312     0.18200
C1124       C  0.36359759  0.84845666  0.52303922     0.26200
C1125       C  0.38047839  0.86947116  0.52888656    -0.11500
C1126       C  0.40484960  0.87261924  0.51549674    -0.25500
C1127       C  0.41148894  0.85446092  0.49521217     0.37100
C1128       C  0.39443632  0.83314828  0.48939933    -0.27200
F1129       F  0.34026685  0.84630996  0.53643965    -0.19300
H1130       H  0.37432018  0.88337106  0.54411321     0.16400
F1131       F  0.43464265  0.85679641  0.48158767    -0.23000
H1132       H  0.40012741  0.81889397  0.47432559     0.18200
C1133       C  0.34180430  0.01001964  0.62041535    -0.27000
C1134       C  0.32226074  0.99019354  0.62233063     0.06600
C1135       C  0.32324840  0.96862538  0.60462879     0.26200
C1136       C  0.34456015  0.96582751  0.58707186    -0.11500
C1137       C  0.36485947  0.98480130  0.58625131    -0.25500
C1138       C  0.36298412  0.00739171  0.60244939     0.37000
C1139       C  0.30182271  0.99125118  0.64364903     0.06600
F1140       F  0.30391390  0.94990832  0.60473261    -0.19300
H1141       H  0.34572208  0.94829476  0.57467356     0.16400
F1142       F  0.38267426  0.02572576  0.60244917    -0.23000
H1143       H  0.34139835  0.02685070  0.63377317     0.18200
C1144       C  0.29739054  0.96915247  0.66021273     0.26200
C1145       C  0.27788094  0.97005166  0.67996907    -0.11500
C1146       C  0.26258627  0.99295162  0.68367464    -0.25500
C1147       C  0.26731231  0.01527250  0.66768716     0.37100
C1148       C  0.28687139  0.01442901  0.64788002    -0.27200
F1149       F  0.31228990  0.94684241  0.65767222    -0.19300
H1150       H  0.27456157  0.95281149  0.69234858     0.16400
F1151       F  0.25299962  0.03781605  0.67129761    -0.23000
H1152       H  0.29009126  0.03173380  0.63557339     0.18200
C1153       C  0.47620324  0.10225198  0.57046779    -0.27000
C1154       C  0.49496184  0.10549023  0.59075683     0.06600
C1155       C  0.50804151  0.08294070  0.60070419     0.26200
C1156       C  0.50226170  0.05771540  0.59062318    -0.11500
C1157       C  0.48314763  0.05429643  0.57056216    -0.25500
C1158       C  0.47036916  0.07703871  0.56036309     0.37000
C1159       C  0.49950464  0.13210479  0.60263357     0.06600
F1160       F  0.52545325  0.08511971  0.62110937    -0.19300
H1161       H  0.51226033  0.04072995  0.59915602     0.16400
F1162       F  0.45195698  0.07503190  0.54085507    -0.23000
H1163       H  0.46585857  0.11934515  0.56256333     0.18200
C1164       C  0.52525703  0.14263131  0.60516214     0.32600
C1165       C  0.52929427  0.16659231  0.61866348    -0.11500
C1166       C  0.50778847  0.18021873  0.63009003    -0.25500
C1167       C  0.48198435  0.17033803  0.62657407     0.37100
C1168       C  0.47789877  0.14661218  0.61278097    -0.27200
F1169       F  0.54652972  0.12948011  0.59504956    -0.19300
H1170       H  0.54932315  0.17384806  0.62141882     0.16400
F1171       F  0.46090747  0.18292276  0.63778761    -0.23000
H1172       H  0.45792062  0.13889043  0.61111303     0.18200
C1173       C  0.39896435  0.56824646  0.52828043    -0.27000
C1174       C  0.39460264  0.58603507  0.50737167     0.06600
C1175       C  0.41599064  0.59309515  0.49088080     0.26200
C1176       C  0.44153902  0.58341892  0.49603758    -0.11500
C1177       C  0.44627830  0.56639853  0.51765580    -0.25500
C1178       C  0.42440014  0.55822634  0.53326560     0.37000
C1179       C  0.36842484  0.59916536  0.50448740     0.06600
F1180       F  0.41246688  0.61058570  0.47072570    -0.19300
H1181       H  0.45778067  0.59000276  0.48356361     0.16400
F1182       F  0.42755141  0.54128445  0.55395200    -0.23000
H1183       H  0.38266896  0.56254654  0.54113854     0.18200
C1184       C  0.35354111  0.59692405  0.48099989     0.26200
C1185       C  0.33002084  0.61152320  0.47789395    -0.11500
C1186       C  0.32122829  0.62861107  0.49810041    -0.25500
C1187       C  0.33569841  0.63019323  0.52186513     0.37100
C1188       C  0.35897802  0.61545011  0.52505357    -0.27200
F1189       F  0.36199745  0.58095741  0.46099003    -0.19300
H1190       H  0.31919655  0.61029295  0.45939027     0.16400
F1191       F  0.32787495  0.64695780  0.54149389    -0.23000
H1192       H  0.37026023  0.61755245  0.54321070     0.18200
C1193       C  0.60380748  0.52240666  0.35383612    -0.27000
C1194       C  0.59934176  0.50084983  0.37099460     0.06600
C1195       C  0.60650265  0.47522637  0.36230038     0.26200
C1196       C  0.61985945  0.47167972  0.33809013    -0.11500
C1197       C  0.62589010  0.49350041  0.32191776    -0.25500
C1198       C  0.61698034  0.51880093  0.32954516     0.37000
C1199       C  0.58896369  0.50556665  0.39842839     0.06600
F1200       F  0.60124096  0.45368279  0.37754377    -0.19300
H1201       H  0.62675534  0.45207702  0.33258757     0.16400
F1202       F  0.62288492  0.54028211  0.31443366    -0.23000
H1203       H  0.59845634  0.54231279  0.35991778     0.18200
C1204       C  0.60192438  0.49477377  0.42071523     0.26200
C1205       C  0.59292299  0.50036940  0.44646886    -0.11500
C1206       C  0.57108800  0.51724119  0.45081307    -0.25500
C1207       C  0.55810766  0.52808836  0.42845198     0.37100
C1208       C  0.56698992  0.52225318  0.40266977    -0.27200
F1209       F  0.62417863  0.47985346  0.41773653    -0.19300
H1210       H  0.60363897  0.49203139  0.46310444     0.16400
F1211       F  0.53692125  0.54451951  0.43134017    -0.23000
H1212       H  0.55672198  0.53093687  0.38592144     0.18200
C1213       C  0.53921017  0.40604286  0.58969931    -0.27000
C1214       C  0.51344966  0.39536603  0.59016930     0.06600
C1215       C  0.49219974  0.41108584  0.58099248     0.26200
C1216       C  0.49670927  0.43703810  0.57217157    -0.11500
C1217       C  0.52248258  0.44753982  0.57178316    -0.25500
C1218       C  0.54377591  0.43168016  0.58033246     0.37000
C1219       C  0.50897809  0.36865148  0.60194514     0.06600
F1220       F  0.46711260  0.40135099  0.58039700    -0.19300
H1221       H  0.48007657  0.44891246  0.56551190     0.16400
F1222       F  0.56887705  0.44144230  0.58093500    -0.23000
H1223       H  0.55583575  0.39480408  0.59736901     0.18200
C1224       C  0.52633826  0.34736552  0.59641829     0.26200
C1225       C  0.52455268  0.32370221  0.61082417    -0.11500
C1226       C  0.50534254  0.32074969  0.63078126    -0.25500
C1227       C  0.48666345  0.34115808  0.63486311     0.37100
C1228       C  0.48867381  0.36493689  0.62077245    -0.27200
F1229       F  0.54562274  0.34974975  0.57770468    -0.19300
H1230       H  0.53910850  0.30822679  0.60743228     0.16400
F1231       F  0.46774244  0.33882548  0.65397348    -0.23000
H1232       H  0.47523758  0.38098091  0.62572868     0.18200
C1233       C  0.62601108  0.34248230  0.97383674    -0.27000
C1234       C  0.62136480  0.32903950  0.99763740     0.06600
C1235       C  0.60143748  0.33817213  0.01498006     0.26200
C1236       C  0.58626624  0.36055427  0.00825245    -0.11500
C1237       C  0.59106987  0.37416760  0.98431796    -0.25500
C1238       C  0.61117638  0.36468127  0.96713523     0.37000
C1239       C  0.63813406  0.30587190  0.00373942     0.06600
F1240       F  0.59645905  0.32527202  0.03809784    -0.19300
H1241       H  0.57097677  0.36733756  0.02181402     0.16400
F1242       F  0.61673212  0.37672154  0.94366992    -0.23000
H1243       H  0.64150246  0.33584994  0.96039522     0.18200
C1244       C  0.64009930  0.28503354  0.98529973     0.26200
C1245       C  0.65940223  0.26550213  0.98835949    -0.11500
C1246       C  0.67687741  0.26629400  0.00994561    -0.25500
C1247       C  0.67436474  0.28652544  0.02896491     0.37100
C1248       C  0.65503216  0.30623054  0.02585000    -0.27200
F1249       F  0.62375753  0.28402910  0.96393405    -0.19300
H1250       H  0.66102856  0.24988032  0.97366621     0.16400
F1251       F  0.69090115  0.28741106  0.05016898    -0.23000
H1252       H  0.65397652  0.32235310  0.04002971     0.18200
C1253       C  0.52216549  0.36518693  0.85475788    -0.27000
C1254       C  0.51424242  0.37446357  0.82981834     0.06600
C1255       C  0.50834819  0.40158924  0.82658740     0.26200
C1256       C  0.51147594  0.41923295  0.84791647    -0.11500
C1257       C  0.52073716  0.40995785  0.87246801    -0.25500
C1258       C  0.52551159  0.38265091  0.87581855     0.37000
C1259       C  0.51290419  0.35549433  0.80746988     0.06600
F1260       F  0.50084839  0.41116417  0.80257578    -0.19300
H1261       H  0.50782434  0.44018512  0.84494373     0.16400
F1262       F  0.53365549  0.37279039  0.89953480    -0.23000
H1263       H  0.52612887  0.34429642  0.85785123     0.18200
C1264       C  0.53451987  0.33854508  0.80209415     0.26200
C1265       C  0.53262690  0.31932611  0.78231393    -0.11500
C1266       C  0.50935634  0.31688013  0.76744816    -0.25500
C1267       C  0.48787830  0.33396894  0.77235533     0.37100
C1268       C  0.48964919  0.35314822  0.79234085    -0.27200
F1269       F  0.55759368  0.34079132  0.81577451    -0.19300
H1270       H  0.54942169  0.30645196  0.77836087     0.16400
F1271       F  0.46521872  0.33185597  0.75801095    -0.23000
H1272       H  0.47272177  0.36580662  0.79636979     0.18200
C1273       C  0.60249546  0.51387895  0.14663764    -0.27000
C1274       C  0.59740765  0.48982211  0.13355429     0.06600
C1275       C  0.60512637  0.46590188  0.14578497     0.26200
C1276       C  0.61893932  0.46627994  0.16987473    -0.11500
C1277       C  0.62511754  0.49041448  0.18221546    -0.25500
C1278       C  0.61608494  0.51420249  0.17084787     0.37000
C1279       C  0.58625679  0.48986950  0.10624772     0.06600
F1280       F  0.60116770  0.44230004  0.13346388    -0.19300
H1281       H  0.62624602  0.44783338  0.17810816     0.16400
F1282       F  0.62229107  0.53781358  0.18214625    -0.23000
H1283       H  0.59673860  0.53249365  0.13760243     0.18200
C1284       C  0.56425814  0.47413644  0.09973443     0.26200
C1285       C  0.55570772  0.47231068  0.07341060    -0.11500
C1286       C  0.56888315  0.48606150  0.05288076    -0.25500
C1287       C  0.59017789  0.50280836  0.05965256     0.37100
C1288       C  0.59866364  0.50467787  0.08608775    -0.27200
F1289       F  0.55117219  0.46029291  0.11879908    -0.19300
H1290       H  0.53905486  0.45949167  0.06904845     0.16400
F1291       F  0.60363480  0.51642460  0.04069649    -0.23000
H1292       H  0.61569187  0.51692265  0.09067440     0.18200
C1293       C  0.41242265  0.42088403  0.00938183    -0.27000
C1294       C  0.39676864  0.41189262  0.98804942     0.06600
C1295       C  0.40746984  0.41334137  0.96218225     0.26200
C1296       C  0.43290314  0.42363063  0.95790211    -0.11500
C1297       C  0.44869980  0.43195507  0.97924491    -0.25500
C1298       C  0.43826689  0.43041318  0.00511717     0.37000
C1299       C  0.37001484  0.39983176  0.99273750     0.06600
F1300       F  0.39390795  0.40366151  0.94105177    -0.19300
H1301       H  0.44068450  0.42418990  0.93783312     0.16400
F1302       F  0.45286733  0.43851799  0.02620887    -0.23000
H1303       H  0.40469111  0.42046431  0.02945193     0.18200
C1304       C  0.36600816  0.38113856  0.01315017     0.26200
C1305       C  0.34192032  0.36749407  0.01521196    -0.11500
C1306       C  0.32154308  0.37150517  0.99661027    -0.25500
C1307       C  0.32483290  0.39124001  0.97720886     0.37100
C1308       C  0.34868966  0.40544874  0.97555226    -0.27200
F1309       F  0.38596033  0.37451724  0.02994742    -0.19300
H1310       H  0.33977226  0.35241565  0.03037263     0.16400
F1311       F  0.30563823  0.39567000  0.95888024    -0.23000
H1312       H  0.35083054  0.42023489  0.96012623     0.18200
C1313       C  0.85257076  0.89653824  0.51045859    -0.27000
C1314       C  0.86360837  0.90376035  0.48584572     0.06600
C1315       C  0.84974789  0.89752923  0.46243039     0.26200
C1316       C  0.82616924  0.88292926  0.46368040    -0.11500
C1317       C  0.81611821  0.87432020  0.48820308    -0.25500
C1318       C  0.82898635  0.88195899  0.51167286     0.37000
C1319       C  0.89106182  0.91435232  0.48458411     0.06600
F1320       F  0.86013677  0.90353300  0.43828015    -0.19300
H1321       H  0.81662576  0.87685740  0.44542228     0.16400
F1322       F  0.81960491  0.87390116  0.53562128    -0.23000
H1323       H  0.86291012  0.90117528  0.52870301     0.18200
C1324       C  0.89724002  0.93748410  0.47031339     0.26200
C1325       C  0.92372558  0.94546811  0.46741179    -0.11500
C1326       C  0.94452703  0.93058405  0.47870165    -0.25500
C1327       C  0.93814881  0.90781562  0.49354125     0.37100
C1328       C  0.91171263  0.89993320  0.49647377    -0.27200
F1329       F  0.87771560  0.95226420  0.45910586    -0.19300
H1330       H  0.92798354  0.96315999  0.45600412     0.16400
F1331       F  0.95747435  0.89230574  0.50406523    -0.23000
H1332       H  0.90741400  0.88184936  0.50724344     0.18200
C1333       C  0.64038238  0.88698940  0.52522743    -0.27000
C1334       C  0.62875235  0.90061617  0.50385032     0.06600
C1335       C  0.64236431  0.90148984  0.47937661     0.26200
C1336       C  0.66609307  0.88735648  0.47596458    -0.11500
C1337       C  0.67671301  0.87259744  0.49699066    -0.25500
C1338       C  0.66417449  0.87316600  0.52187323     0.37000
C1339       C  0.60200054  0.91267562  0.50727161     0.06600
F1340       F  0.63258269  0.91568321  0.45871331    -0.19300
H1341       H  0.67562544  0.88702124  0.45666466     0.16400
F1342       F  0.67423527  0.85906932  0.54248709    -0.23000
H1343       H  0.63041734  0.88603789  0.54428548     0.18200
C1344       C  0.58139199  0.90767619  0.48909237     0.26200
C1345       C  0.55566819  0.91709249  0.49404339    -0.11500
C1346       C  0.54985760  0.93144022  0.51728900    -0.25500
C1347       C  0.57064960  0.93665364  0.53529601     0.37100
C1348       C  0.59631758  0.92744786  0.53020258    -0.27200
F1349       F  0.58569276  0.89245163  0.46727064    -0.19300
H1350       H  0.54013948  0.91257229  0.47993155     0.16400
F1351       F  0.56616400  0.94979059  0.55841533    -0.23000
H1352       H  0.61177199  0.93145935  0.54456009     0.18200
C1353       C  0.62498321  0.66051563  0.53097768    -0.27000
C1354       C  0.62114338  0.67430333  0.50721423     0.06600
C1355       C  0.60075205  0.66625052  0.48996475     0.26200
C1356       C  0.58425748  0.64487792  0.49684080    -0.11500
C1357       C  0.58798985  0.63124040  0.52092710    -0.25500
C1358       C  0.60869817  0.63942623  0.53791227     0.37000
C1359       C  0.63874172  0.69703212  0.50127203     0.06600
F1360       F  0.59649776  0.67930303  0.46681144    -0.19300
H1361       H  0.56867326  0.63897439  0.48331750     0.16400
F1362       F  0.61369680  0.62694614  0.56125443    -0.23000
H1363       H  0.64090180  0.66605706  0.54428995     0.18200
C1364       C  0.64250031  0.71694244  0.52048094     0.26200
C1365       C  0.66153311  0.73660738  0.51659756    -0.11500
C1366       C  0.67715254  0.73680963  0.49354820    -0.25500
C1367       C  0.67303834  0.71740198  0.47395741     0.37100
C1368       C  0.65386186  0.69765768  0.47779619    -0.27200
F1369       F  0.62799664  0.71708980  0.54324636    -0.19300
H1370       H  0.66446354  0.75150348  0.53180918     0.16400
F1371       F  0.68789516  0.71733464  0.45143985    -0.23000
H1372       H  0.65149662  0.68232314  0.46293410     0.18200
C1373       C  0.89590721  0.67506981  0.47457406    -0.27000
C1374       C  0.87205829  0.67279271  0.48883971     0.06600
C1375       C  0.86578786  0.64860772  0.50110461     0.26200
C1376       C  0.88278935  0.62682089  0.49840191    -0.11500
C1377       C  0.90649943  0.62883503  0.48371164    -0.25500
C1378       C  0.91316476  0.65339703  0.47220013     0.37000
C1379       C  0.85307781  0.69517158  0.48958271     0.06600
F1380       F  0.84259885  0.64570864  0.51459067    -0.19300
H1381       H  0.87709460  0.60812934  0.50731485     0.16400
F1382       F  0.93553012  0.65608796  0.45736078    -0.23000
H1383       H  0.90092647  0.69357663  0.46489581     0.18200
C1384       C  0.84583870  0.70713389  0.51376804     0.26200
C1385       C  0.82719000  0.72773427  0.51417404    -0.11500
C1386       C  0.81537488  0.73636795  0.49052077    -0.25500
C1387       C  0.82265831  0.72451905  0.46636175     0.37100
C1388       C  0.84153318  0.70417980  0.46590473    -0.27200
F1389       F  0.85695544  0.69898854  0.53688453    -0.19300
H1390       H  0.82169954  0.73677803  0.53291490     0.16400
F1391       F  0.81126831  0.73251654  0.44331901    -0.23000
H1392       H  0.84678858  0.69505644  0.44713169     0.18200
C1393       C  0.51722427  0.85923366  0.89954449    -0.27000
C1394       C  0.49135226  0.86954049  0.90136409     0.06600
C1395       C  0.47027969  0.85546502  0.88970535     0.26200
C1396       C  0.47539004  0.83237932  0.87515316    -0.11500
C1397       C  0.50144242  0.82292775  0.87221921    -0.25500
C1398       C  0.52226323  0.83602504  0.88520413     0.37000
C1399       C  0.48710324  0.89633562  0.91268205     0.06600
F1400       F  0.44509814  0.86505402  0.89066062    -0.19300
H1401       H  0.45920737  0.82257630  0.86500905     0.16400
F1402       F  0.54763576  0.82733382  0.88249691    -0.23000
H1403       H  0.53368510  0.86977356  0.90842095     0.18200
C1404       C  0.46815390  0.90104064  0.93264491     0.26200
C1405       C  0.46366095  0.92684970  0.94185176    -0.11500
C1406       C  0.47786993  0.94848390  0.93126186    -0.25500
C1407       C  0.49724977  0.94352488  0.91164750     0.37100
C1408       C  0.50176050  0.91772932  0.90257797    -0.27200
F1409       F  0.45406780  0.88071596  0.94329048    -0.19300
H1410       H  0.44868256  0.92990245  0.95701982     0.16400
F1411       F  0.51140540  0.96357597  0.90060440    -0.23000
H1412       H  0.51632491  0.91451532  0.88702978     0.18200
C1413       C  0.48715513  0.59217950  0.91944774    -0.27000
C1414       C  0.50822590  0.60871986  0.91134217     0.06600
C1415       C  0.53435647  0.59878991  0.91313174     0.26200
C1416       C  0.53914744  0.57326532  0.92271080    -0.11500
C1417       C  0.51814929  0.55652447  0.92995565    -0.25500
C1418       C  0.49199711  0.56618946  0.92831571     0.37000
C1419       C  0.50324336  0.63553027  0.89957775     0.06600
F1420       F  0.55535989  0.61316374  0.90432047    -0.19300
H1421       H  0.55943844  0.56613907  0.92344223     0.16400
F1422       F  0.47122230  0.55071569  0.93565504    -0.23000
H1423       H  0.46688449  0.59929826  0.91880228     0.18200
C1424       C  0.48339253  0.63943696  0.88026143     0.26200
C1425       C  0.48225280  0.66318194  0.86589807    -0.11500
C1426       C  0.50109487  0.68326126  0.87006885    -0.25500
C1427       C  0.51951333  0.68032045  0.89070636     0.37100
C1428       C  0.52026256  0.65686696  0.90554581    -0.27200
F1429       F  0.46647024  0.61963247  0.87360741    -0.19300
H1430       H  0.46783158  0.66517027  0.85010649     0.16400
F1431       F  0.53802205  0.69930881  0.89521491    -0.23000
H1432       H  0.53512878  0.65490120  0.92090128     0.18200
C1433       C  0.51247082  0.90323904  0.66755423    -0.27000
C1434       C  0.49596264  0.88241105  0.67599700     0.06600
C1435       C  0.47210989  0.87778299  0.66239987     0.26200
C1436       C  0.46498794  0.89347572  0.64084680    -0.11500
C1437       C  0.48146202  0.91414809  0.63198216    -0.25500
C1438       C  0.50532808  0.91906756  0.64575054     0.37000
C1439       C  0.50333626  0.86502078  0.69859366     0.06600
F1440       F  0.45600356  0.85736471  0.66935352    -0.19300
H1441       H  0.44658989  0.88895320  0.63075305     0.16400
F1442       F  0.52186359  0.93888196  0.63810849    -0.23000
H1443       H  0.53086043  0.90725598  0.67787797     0.18200
C1444       C  0.52771646  0.85130130  0.69903237     0.26200
C1445       C  0.53244883  0.83188794  0.71841071    -0.11500
C1446       C  0.51301705  0.82610247  0.73758435    -0.25500
C1447       C  0.48921735  0.84060226  0.73779445     0.37100
C1448       C  0.48454730  0.85996151  0.71861104    -0.27200
F1449       F  0.54626822  0.85558620  0.67992244    -0.19300
H1450       H  0.55092104  0.82087475  0.71807685     0.16400
F1451       F  0.47005273  0.83524875  0.75601086    -0.23000
H1452       H  0.46577064  0.87046316  0.71884104     0.18200
C1453       C  0.48827159  0.62133186  0.65732980    -0.27000
C1454       C  0.50787887  0.62289593  0.67705876     0.06600
C1455       C  0.52862011  0.60426931  0.67715521     0.26200
C1456       C  0.53083170  0.58574465  0.65666681    -0.11500
C1457       C  0.51229685  0.58530816  0.63592677    -0.25500
C1458       C  0.49050151  0.60269417  0.63674658     0.37000
C1459       C  0.50801847  0.64520585  0.69613514     0.06600
F1460       F  0.54740862  0.60483001  0.69641832    -0.19300
H1461       H  0.54794480  0.57270158  0.65612358     0.16400
F1462       F  0.47285267  0.60330305  0.61644918    -0.23000
H1463       H  0.47217836  0.63559634  0.65698367     0.18200
C1464       C  0.52913636  0.66344507  0.69613640     0.26200
C1465       C  0.52971672  0.68411181  0.71463201    -0.11500
C1466       C  0.50936826  0.68681130  0.73349065    -0.25500
C1467       C  0.48803686  0.66879939  0.73324570     0.37100
C1468       C  0.48732201  0.64826593  0.71455263    -0.27200
F1469       F  0.54917448  0.66125389  0.67818320    -0.19300
H1470       H  0.54629726  0.69775885  0.71460255     0.16400
F1471       F  0.46816373  0.67086871  0.75138997    -0.23000
H1472       H  0.47093095  0.63439649  0.71479387     0.18200
C1473       C  0.89907113  0.48269244  0.85482490    -0.27000
C1474       C  0.90819637  0.50476473  0.86914826     0.06600
C1475       C  0.90514790  0.53021323  0.85814377     0.26200
C1476       C  0.89121242  0.53353462  0.83426328    -0.11500
C1477       C  0.88041191  0.51151627  0.82105378    -0.25500
C1478       C  0.88531038  0.48599198  0.83099504     0.37000
C1479       C  0.91690711  0.50116079  0.89705558     0.06600
F1480       F  0.91367653  0.55192900  0.87153630    -0.19300
H1481       H  0.88741169  0.55335550  0.82692952     0.16400
F1482       F  0.87510692  0.46440932  0.81860167    -0.23000
H1483       H  0.90131726  0.46292995  0.86293406     0.18200
C1484       C  0.89912186  0.49021416  0.91550887     0.26200
C1485       C  0.90686485  0.48587840  0.94169801    -0.11500
C1486       C  0.93265276  0.49214435  0.95032215    -0.25500
C1487       C  0.95046525  0.50358726  0.93188339     0.37100
C1488       C  0.94250665  0.50820238  0.90551003    -0.27200
F1489       F  0.87402085  0.48380285  0.90817920    -0.19300
H1490       H  0.89255362  0.47715019  0.95517063     0.16400
F1491       F  0.97556925  0.51002972  0.93912803    -0.23000
H1492       H  0.95646355  0.51675985  0.89155825     0.18200
C1493       C  0.91162363  0.52812968  0.64879035    -0.27000
C1494       C  0.90666844  0.50681540  0.63150688     0.06600
C1495       C  0.88995896  0.48618256  0.64002120     0.26200
C1496       C  0.87682678  0.48793515  0.66442325    -0.11500
C1497       C  0.87994474  0.51034132  0.68066731    -0.25500
C1498       C  0.89824954  0.52998482  0.67320174     0.37000
C1499       C  0.91595555  0.50785449  0.60353797     0.06600
F1500       F  0.88519119  0.46504527  0.62403889    -0.19300
H1501       H  0.86275864  0.47264308  0.66988105     0.16400
F1502       F  0.90158493  0.55186413  0.68850823    -0.23000
H1503       H  0.92441576  0.54422429  0.64257755     0.18200
C1504       C  0.89730710  0.50720364  0.58285386     0.26200
C1505       C  0.90549841  0.50958600  0.55651114    -0.11500
C1506       C  0.93244163  0.51290118  0.55001825    -0.25500
C1507       C  0.95125700  0.51326025  0.57069878     0.37100
C1508       C  0.94297798  0.51089306  0.59725561    -0.27200
F1509       F  0.87092207  0.50556947  0.58818440    -0.19300
H1510       H  0.89050893  0.50948675  0.54113427     0.16400
F1511       F  0.97739786  0.51716382  0.56543057    -0.23000
H1512       H  0.95759922  0.51174368  0.61295459     0.18200
C1513       C  0.71867047  0.48263723  0.85134698    -0.27000
C1514       C  0.70098591  0.50344016  0.85736043     0.06600
C1515       C  0.70481184  0.52819848  0.84503851     0.26200
C1516       C  0.72547636  0.53172248  0.82660340    -0.11500
C1517       C  0.74275766  0.51073252  0.82033716    -0.25500
C1518       C  0.73934409  0.48620583  0.83305294     0.37000
C1519       C  0.67765696  0.49842584  0.87495871     0.06600
F1520       F  0.68787050  0.54858603  0.84990356    -0.19300
H1521       H  0.72776078  0.55070601  0.81683308     0.16400
F1522       F  0.75561592  0.46552127  0.82720687    -0.23000
H1523       H  0.71620349  0.46341975  0.86060729     0.18200
C1524       C  0.66054661  0.47722663  0.86938904     0.26200
C1525       C  0.63882576  0.47199429  0.88578869    -0.11500
C1526       C  0.63329949  0.48767206  0.90833296    -0.25500
C1527       C  0.65034960  0.50910925  0.91392150     0.37100
C1528       C  0.67226335  0.51442756  0.89728221    -0.27200
F1529       F  0.66446347  0.46180094  0.84761943    -0.19300
H1530       H  0.62614059  0.45550451  0.88053683     0.16400
F1531       F  0.64612132  0.52470716  0.93548249    -0.23000
H1532       H  0.68525931  0.53082929  0.90202937     0.18200
C1533       C  0.71440343  0.49521628  0.65107738    -0.27000
C1534       C  0.70115850  0.51901713  0.64513869     0.06600
C1535       C  0.71014250  0.54277027  0.65678947     0.26200
C1536       C  0.73098474  0.54244381  0.67503719    -0.11500
C1537       C  0.74340322  0.51853807  0.68176916    -0.25500
C1538       C  0.73546171  0.49496908  0.66922238     0.37000
C1539       C  0.67669479  0.51901532  0.62871296     0.06600
F1540       F  0.69851974  0.56628937  0.65070166    -0.19300
H1541       H  0.73721037  0.56079948  0.68427581     0.16400
F1542       F  0.74757261  0.47168098  0.67519047    -0.23000
H1543       H  0.70781015  0.47671437  0.64242287     0.18200
C1544       C  0.67593489  0.50790377  0.60305153     0.26200
C1545       C  0.65287060  0.51009763  0.58750260    -0.11500
C1546       C  0.63032136  0.52337139  0.59736025    -0.25500
C1547       C  0.63082093  0.53306983  0.62365256     0.37100
C1548       C  0.65369430  0.53088889  0.63897347    -0.27200
F1549       F  0.69778904  0.49603743  0.59260443    -0.19300
H1550       H  0.65298506  0.50231057  0.56746311     0.16400
F1551       F  0.60919398  0.54488543  0.63468916    -0.23000
H1552       H  0.65353398  0.53881583  0.65897408     0.18200
loop_ 
_geom_bond_atom_site_label_1 
_geom_bond_atom_site_label_2 
_geom_bond_distance 
_geom_bond_site_symmetry_2 
_ccdc_geom_bond_type 
N1            C6   1.355       .  A
N1            C5   1.355       .  A
N1           H33   1.036       .  S
N2            C9   1.356       .  A
N2           C10   1.354       .  A
N3            C8   1.356       .  A
N3            C7   1.355       .  A
N3           H34   1.036       .  S
N4           C11   1.353       .  A
N4           C12   1.351       .  A
C5           C13   1.387       .  A
C5           C21   1.419       .  A
C6           C22   1.417       .  A
C6           C14   1.387       .  A
C7           C15   1.388       .  A
C7           C24   1.421       .  A
C8           C23   1.420       .  A
C8           C16   1.386       .  A
C9           C21   1.417       .  A
C9           C17   1.385       .  A
C10          C24   1.421       .  A
C10          C18   1.389       .  A
C11          C19   1.385       .  A
C11          C22   1.412       .  A
C12          C20   1.389       .  A
C12          C23   1.417       .  A
C13          C14   1.375       .  A
C13          H25   1.082       .  S
C14          H26   1.082       .  S
C15          C16   1.379       .  A
C15          H27   1.082       .  S
C16          H28   1.082       .  S
C17          C18   1.372       .  A
C17          H29   1.082       .  S
C18          H30   1.082       .  S
C19          C20   1.370       .  A
C19          H31   1.082       .  S
C20          H32   1.082       .  S
C21        C1517   1.494       .  S
C22        C1537   1.486       .  S
C23        C1497   1.491       .  S
C24        C1477   1.490       .  S
N35          C40   1.354       .  A
N35          C39   1.354       .  A
N35          H67   1.041       .  S
N36          C43   1.353       .  A
N36          C44   1.352       .  A
N37          C42   1.354       .  A
N37          C41   1.353       .  A
N37          H68   1.040       .  S
N38          C45   1.352       .  A
N38          C46   1.353       .  A
C39          C47   1.388       .  A
C39          C55   1.418       .  A
C40          C56   1.416       .  A
C40          C48   1.386       .  A
C41          C49   1.388       .  A
C41          C58   1.418       .  A
C42          C57   1.417       .  A
C42          C50   1.386       .  A
C43          C55   1.413       .  A
C43          C51   1.385       .  A
C44          C58   1.417       .  A
C44          C52   1.389       .  A
C45          C53   1.385       .  A
C45          C56   1.412       .  A
C46          C54   1.387       .  A
C46          C57   1.416       .  A
C47          C48   1.376       .  A
C47          H59   1.082       .  S
C48          H60   1.082       .  S
C49          C50   1.378       .  A
C49          H61   1.082       .  S
C50          H62   1.082       .  S
C51          C52   1.370       .  A
C51          H63   1.083       .  S
C52          H64   1.082       .  S
C53          C54   1.369       .  A
C53          H65   1.082       .  S
C54          H66   1.082       .  S
C55        C1446   1.488       .  S
C56        C1466   1.489       .  S
C57        C1426   1.494       .  S
C58        C1397   1.485       .  S
N69          C74   1.355       .  A
N69          C73   1.353       .  A
N69         H101   1.030       .  S
N70          C77   1.353       .  A
N70          C78   1.353       .  A
N71          C76   1.354       .  A
N71          C75   1.355       .  A
N71         H102   1.029       .  S
N72          C79   1.352       .  A
N72          C80   1.350       .  A
C73          C81   1.387       .  A
C73          C89   1.414       .  A
C74          C90   1.415       .  A
C74          C82   1.387       .  A
C75          C83   1.386       .  A
C75          C92   1.416       .  A
C76          C91   1.416       .  A
C76          C84   1.387       .  A
C77          C89   1.414       .  A
C77          C85   1.385       .  A
C78          C92   1.418       .  A
C78          C86   1.388       .  A
C79          C87   1.385       .  A
C79          C90   1.412       .  A
C80          C88   1.388       .  A
C80          C91   1.414       .  A
C81          C82   1.375       .  A
C81          H93   1.082       .  S
C82          H94   1.082       .  S
C83          C84   1.379       .  A
C83          H95   1.082       .  S
C84          H96   1.082       .  S
C85          C86   1.371       .  A
C85          H97   1.082       .  S
C86          H98   1.082       .  S
C87          C88   1.370       .  A
C87          H99   1.082       .  S
C88         H100   1.082       .  S
C89        C1386   1.483       .  S
C90        C1366   1.486       .  S
C91        C1337   1.482       .  S
C92        C1317   1.487       .  S
Zn103       O107   1.964       .  S
Zn103       O108   2.064   1_556  S
Zn103       O112   2.025       .  S
Zn103       O119   2.090       .  S
Zn104       O107   1.963       .  S
Zn104       O109   2.044       .  S
Zn104       O111   2.001   1_556  S
Zn104       O115   2.056       .  S
Zn105       O107   1.967       .  S
Zn105       O110   2.053       .  S
Zn105       O113   2.028       .  S
Zn105       O116   2.063       .  S
Zn106       O107   1.900       .  S
Zn106       O114   1.953       .  S
Zn106       O117   1.958       .  S
Zn106       O118   1.974       .  S
O108        C120   1.282       .  A
O109        C121   1.277       .  A
O110        C122   1.280       .  A
O111        C120   1.275       .  A
O112        C122   1.278       .  A
O113        C121   1.276       .  A
O114        C123   1.267       .  A
O115        C124   1.276       .  A
O116        C123   1.277       .  A
O117        C124   1.267       .  A
O118        C125   1.268       .  A
O119        C125   1.279       .  A
C120       C1286   1.491       .  S
C121       C1297   1.484       .  S
C122       C1417   1.483       .  S
C123       C1257   1.473       .  S
C124       C1237   1.484       .  S
C125       C1526   1.497       .  S
Zn126       O130   1.962       .  S
Zn126       O131   2.032       .  S
Zn126       O135   2.018       .  S
Zn126       O142   2.066       .  S
Zn127       O130   1.966       .  S
Zn127       O132   2.056       .  S
Zn127       O134   2.014       .  S
Zn127       O138   2.074       .  S
Zn128       O130   1.964       .  S
Zn128       O133   2.045       .  S
Zn128       O136   2.023       .  S
Zn128       O139   2.056       .  S
Zn129       O130   1.909       .  S
Zn129       O137   1.958       .  S
Zn129       O140   1.970       .  S
Zn129       O141   1.964       .  S
O131        C143   1.278       .  A
O132        C144   1.281       .  A
O133        C145   1.279       .  A
O134        C143   1.276       .  A
O135        C145   1.275       .  A
O136        C144   1.275       .  A
O137        C146   1.268       .  A
O138        C147   1.277       .  A
O139        C146   1.277       .  A
O140        C147   1.267       .  A
O141        C148   1.266       .  A
O142        C148   1.277       .  A
C143       C1217   1.476       .  S
C144       C1206   1.495       .  S
C145       C1177   1.492       .  S
C146       C1357   1.485       .  S
C147       C1546   1.487       .  S
C148       C1457   1.470       .  S
Zn149       O153   1.959       .  S
Zn149       O154   2.033   1_565  S
Zn149       O158   2.003       .  S
Zn149       O165   2.040       .  S
Zn150       O153   1.966       .  S
Zn150       O155   2.051       .  S
Zn150       O157   2.036   1_565  S
Zn150       O161   2.056       .  S
Zn151       O153   1.973       .  S
Zn151       O156   2.046       .  S
Zn151       O159   2.017       .  S
Zn151       O162   2.066       .  S
Zn152       O153   1.924       .  S
Zn152       O160   1.981       .  S
Zn152       O163   1.976       .  S
Zn152       O164   1.992       .  S
O154        C166   1.277       .  A
O155        C167   1.281       .  A
O156        C168   1.279       .  A
O157        C166   1.277       .  A
O158        C168   1.274       .  A
O159        C167   1.275       .  A
O160        C169   1.269       .  A
O161        C170   1.277       .  A
O162        C169   1.276       .  A
O163        C170   1.269       .  A
O164        C171   1.272       .  A
O165        C171   1.274       .  A
C166       C1157   1.493       .  S
C167       C1106   1.493       .  S
C168       C1346   1.488       .  S
C169       C1126   1.490       .  S
C170       C1137   1.471       .  S
C171       C1437   1.488       .  S
N172        C177   1.351       .  A
N172        C176   1.350       .  A
N172        H204   1.041       .  S
N173        C180   1.351       .  A
N173        C181   1.349       .  A
N174        C179   1.354       .  A
N174        C178   1.355       .  A
N174        H205   1.040       .  S
N175        C182   1.352       .  A
N175        C183   1.350       .  A
C176        C184   1.385       .  A
C176        C192   1.406       .  A
C177        C193   1.413       .  A
C177        C185   1.388       .  A
C178        C186   1.386       .  A
C178        C195   1.418       .  A
C179        C194   1.420       .  A
C179        C187   1.388       .  A
C180        C192   1.406       .  A
C180        C188   1.384       .  A
C181        C195   1.413       .  A
C181        C189   1.388       .  A
C182        C190   1.384       .  A
C182        C193   1.411       .  A
C183        C191   1.389       .  A
C183        C194   1.415       .  A
C184        C185   1.376       .  A
C184        H196   1.082       .  S
C185        H197   1.082       .  S
C186        C187   1.382       .  A
C186        H198   1.082       .  S
C187        H199   1.082       .  S
C188        C189   1.370       .  A
C188        H200   1.082       .  S
C189        H201   1.082       .  S
C190        C191   1.373       .  A
C190        H202   1.082       .  S
C191        H203   1.081       .  S
C192       C1266   1.476       .  S
C193       C1077   1.487       .  S
C194       C1166   1.488       .  S
C195       C1226   1.490       .  S
Zn206       O210   1.957       .  S
Zn206       O211   2.006   1_545  S
Zn206       O215   2.052       .  S
Zn206       O222   2.028   1_556  S
Zn207       O210   1.945       .  S
Zn207       O212   2.053       .  S
Zn207       O214   2.033   1_545  S
Zn207       O218   2.012       .  S
Zn208       O210   1.907       .  S
Zn208       O213   1.966       .  S
Zn208       O216   1.979       .  S
Zn208       O219   1.965       .  S
Zn209       O210   1.960       .  S
Zn209       O217   2.055       .  S
Zn209       O220   2.038       .  S
Zn209       O221   2.026   1_556  S
O211        C223   1.274       .  A
O212        C224   1.277       .  A
O213        C225   1.268       .  A
O214        C223   1.278       .  A
O215        C225   1.275       .  A
O216        C224   1.269       .  A
O217        C226   1.276       .  A
O218        C227   1.275       .  A
O219        C226   1.269       .  A
O220        C227   1.278       .  A
O221        C228   1.276       .  A
O222        C228   1.278       .  A
C223       C1406   1.486       .  S
C224       C1086   1.485       .  S
C225       C1017   1.485       .  S
C226       C1046   1.471       .  S
C227       C1057   1.489       .  S
C228       C1006   1.483       .  S
N229        C234   1.352       .  A
N229        C233   1.353       .  A
N229        H261   1.040       .  S
N230        C237   1.355       .  A
N230        C238   1.351       .  A
N231        C236   1.355       .  A
N231        C235   1.352       .  A
N231        H262   1.039       .  S
N232        C239   1.349       .  A
N232        C240   1.350       .  A
C233        C241   1.387   1_554  A
C233        C249   1.415       .  A
C234        C250   1.413       .  A
C234        C242   1.387   1_554  A
C235        C243   1.387   1_554  A
C235        C252   1.416       .  A
C236        C251   1.416       .  A
C236        C244   1.386   1_554  A
C237        C249   1.413       .  A
C237        C245   1.384       .  A
C238        C252   1.418       .  A
C238        C246   1.389       .  A
C239        C247   1.386       .  A
C239        C250   1.409       .  A
C240        C248   1.387       .  A
C240        C251   1.410       .  A
C241        C242   1.376       .  A
C241        H253   1.082       .  S
C242        H254   1.082       .  S
C243        C244   1.380       .  A
C243        H255   1.082       .  S
C244        H256   1.082       .  S
C245        C246   1.373       .  A
C245        H257   1.082       .  S
C246        H258   1.082       .  S
C247        C248   1.369       .  A
C247        H259   1.082       .  S
C248        H260   1.082       .  S
C249        C977   1.493       .  S
C250       C1246   1.481       .  S
C251       C1066   1.486   1_554  S
C252        C957   1.484       .  S
N263        C268   1.353       .  A
N263        C267   1.353       .  A
N263        H295   1.035       .  S
N264        C271   1.352       .  A
N264        C272   1.352       .  A
N265        C270   1.353       .  A
N265        C269   1.354       .  A
N265        H296   1.035   1_545  S
N266        C273   1.352       .  A
N266        C274   1.351       .  A
C267        C275   1.386   1_565  A
C267        C283   1.411       .  A
C268        C284   1.415       .  A
C268        C276   1.388   1_565  A
C269        C277   1.387       .  A
C269        C286   1.417       .  A
C270        C285   1.415       .  A
C270        C278   1.387       .  A
C271        C283   1.409       .  A
C271        C279   1.384       .  A
C272        C286   1.417   1_565  A
C272        C280   1.389       .  A
C273        C281   1.385       .  A
C273        C284   1.412       .  A
C274        C282   1.388       .  A
C274        C285   1.414   1_565  A
C275        C276   1.376       .  A
C275        H287   1.082       .  S
C276        H288   1.082       .  S
C277        C278   1.382       .  A
C277        H289   1.082       .  S
C278        H290   1.082       .  S
C279        C280   1.371       .  A
C279        H291   1.082       .  S
C280        H292   1.082       .  S
C281        C282   1.371       .  A
C281        H293   1.082       .  S
C282        H294   1.082       .  S
C283       C1146   1.484       .  S
C284       C1026   1.489       .  S
C285        C917   1.484       .  S
C286        C937   1.494       .  S
N297        C302   1.352       .  A
N297        C301   1.351       .  A
N297        H329   1.040       .  S
N298        C305   1.356       .  A
N298        C306   1.353       .  A
N299        C304   1.357       .  A
N299        C303   1.356       .  A
N299        H330   1.039       .  S
N300        C307   1.351       .  A
N300        C308   1.350       .  A
C301        C309   1.386   1_655  A
C301        C317   1.412       .  A
C302        C318   1.414       .  A
C302        C310   1.388   1_655  A
C303        C311   1.387   1_655  A
C303        C320   1.422       .  A
C304        C319   1.422       .  A
C304        C312   1.386   1_655  A
C305        C317   1.415       .  A
C305        C313   1.385       .  A
C306        C320   1.419       .  A
C306        C314   1.388       .  A
C307        C315   1.384       .  A
C307        C318   1.410       .  A
C308        C316   1.389       .  A
C308        C319   1.415       .  A
C309        C310   1.376       .  A
C309        H321   1.082       .  S
C310        H322   1.082       .  S
C311        C312   1.383       .  A
C311        H323   1.082       .  S
C312        H324   1.082       .  S
C313        C314   1.371       .  A
C313        H325   1.082       .  S
C314        H326   1.082       .  S
C315        C316   1.371       .  A
C315        H327   1.082       .  S
C316        H328   1.082       .  S
C317        C877   1.491       .  S
C318        C897   1.483       .  S
C319        C846   1.492       .  S
C320        C857   1.497   1_655  S
N331        C336   1.354       .  A
N331        C335   1.352       .  A
N331        H363   1.039       .  S
N332        C339   1.355       .  A
N332        C340   1.353       .  A
N333        C338   1.356       .  A
N333        C337   1.355       .  A
N333        H364   1.037       .  S
N334        C341   1.352       .  A
N334        C342   1.350       .  A
C335        C343   1.387       .  A
C335        C351   1.414       .  A
C336        C352   1.414       .  A
C336        C344   1.387       .  A
C337        C345   1.386       .  A
C337        C354   1.419       .  A
C338        C353   1.420       .  A
C338        C346   1.387       .  A
C339        C351   1.416       .  A
C339        C347   1.385       .  A
C340        C354   1.419       .  A
C340        C348   1.388       .  A
C341        C349   1.385       .  A
C341        C352   1.411       .  A
C342        C350   1.388       .  A
C342        C353   1.415       .  A
C343        C344   1.375       .  A
C343        H355   1.082       .  S
C344        H356   1.082       .  S
C345        C346   1.380       .  A
C345        H357   1.082       .  S
C346        H358   1.082       .  S
C347        C348   1.372       .  A
C347        H359   1.082       .  S
C348        H360   1.082       .  S
C349        C350   1.372       .  A
C349        H361   1.082       .  S
C350        H362   1.082       .  S
C351        C826   1.489       .  S
C352       C1117   1.485       .  S
C353       C1186   1.488       .  S
C354        C806   1.490       .  S
N365        C370   1.352       .  A
N365        C369   1.352       .  A
N365        H397   1.036       .  S
N366        C373   1.354       .  A
N366        C374   1.353       .  A
N367        C372   1.355       .  A
N367        C371   1.355       .  A
N367        H398   1.037       .  S
N368        C375   1.353       .  A
N368        C376   1.351       .  A
C369        C377   1.387       .  A
C369        C385   1.414       .  A
C370        C386   1.415       .  A
C370        C378   1.387       .  A
C371        C379   1.386       .  A
C371        C388   1.419       .  A
C372        C387   1.421       .  A
C372        C380   1.388       .  A
C373        C385   1.414       .  A
C373        C381   1.385       .  A
C374        C388   1.418       .  A
C374        C382   1.388       .  A
C375        C383   1.384       .  A
C375        C386   1.413       .  A
C376        C384   1.389       .  A
C376        C387   1.419       .  A
C377        C378   1.375       .  A
C377        H389   1.082       .  S
C378        H390   1.082       .  S
C379        C380   1.381       .  A
C379        H391   1.082       .  S
C380        H392   1.082       .  S
C381        C382   1.369       .  A
C381        H393   1.082       .  S
C382        H394   1.082       .  S
C383        C384   1.370       .  A
C383        H395   1.082       .  S
C384        H396   1.082       .  S
C385        C757   1.482       .  S
C386        C777   1.484       .  S
C387       C1277   1.488       .  S
C388       C1197   1.490       .  S
Zn399       O403   1.947       .  S
Zn399       O404   2.028   1_655  S
Zn399       O408   2.034       .  S
Zn399       O415   1.997       .  S
Zn400       O403   1.953       .  S
Zn400       O405   2.049       .  S
Zn400       O407   2.043   1_655  S
Zn400       O411   2.050       .  S
Zn401       O403   1.946       .  S
Zn401       O406   2.006       .  S
Zn401       O409   1.999       .  S
Zn401       O412   2.027       .  S
Zn402       O403   1.946       .  S
Zn402       O410   1.995       .  S
Zn402       O413   2.028       .  S
Zn402       O414   2.031       .  S
O404        C416   1.277       .  A
O405        C417   1.279       .  A
O406        C418   1.272       .  A
O407        C416   1.277       .  A
O408        C418   1.275       .  A
O409        C417   1.275       .  A
O410        C419   1.271       .  A
O411        C420   1.279       .  A
O412        C419   1.274       .  A
O413        C420   1.277       .  A
O414        C421   1.276       .  A
O415        C421   1.272       .  A
C416        C797   1.482       .  S
C417       C1506   1.485       .  S
C418       C1377   1.483       .  S
C419        C766   1.479       .  S
C420        C737   1.496       .  S
C421        C886   1.486       .  S
Zn422       O426   1.926       .  S
Zn422       O427   1.973       .  S
Zn422       O431   1.980       .  S
Zn422       O438   1.973       .  S
Zn423       O426   1.971       .  S
Zn423       O428   2.014   1_455  S
Zn423       O430   2.049       .  S
Zn423       O434   2.042   1_565  S
Zn424       O426   1.965       .  S
Zn424       O429   2.055       .  S
Zn424       O432   2.041   1_455  S
Zn424       O435   2.015       .  S
Zn425       O426   1.965       .  S
Zn425       O433   2.035       .  S
Zn425       O436   2.009   1_565  S
Zn425       O437   2.051       .  S
O427        C439   1.268       .  A
O428        C440   1.275       .  A
O429        C441   1.275       .  A
O430        C439   1.276       .  A
O431        C441   1.268       .  A
O432        C440   1.279       .  A
O433        C442   1.277       .  A
O434        C443   1.277       .  A
O435        C442   1.275       .  A
O436        C443   1.274       .  A
O437        C444   1.275       .  A
O438        C444   1.269       .  A
C439        C906   1.485       .  S
C440       C1326   1.486       .  S
C441        C817   1.475       .  S
C442        C946   1.478       .  S
C443        C706   1.480       .  S
C444        C726   1.485       .  S
Zn445       O449   1.945       .  S
Zn445       O450   2.011   1_554  S
Zn445       O454   2.022       .  S
Zn445       O461   2.013       .  S
Zn446       O449   1.972       .  S
Zn446       O451   2.062       .  S
Zn446       O453   2.051   1_554  S
Zn446       O457   2.045   1_655  S
Zn447       O449   1.956       .  S
Zn447       O452   2.016       .  S
Zn447       O455   2.025       .  S
Zn447       O458   2.042       .  S
Zn448       O449   1.959       .  S
Zn448       O456   2.019       .  S
Zn448       O459   2.013   1_655  S
Zn448       O460   2.053       .  S
O450        C462   1.276       .  A
O451        C463   1.279       .  A
O452        C464   1.274       .  A
O453        C462   1.278       .  A
O454        C464   1.275       .  A
O455        C463   1.276       .  A
O456        C465   1.274       .  A
O457        C466   1.279       .  A
O458        C465   1.277       .  A
O459        C466   1.277       .  A
O460        C467   1.277       .  A
O461        C467   1.273       .  A
C462       C1486   1.493       .  S
C463        C866   1.498       .  S
C464        C786   1.484       .  S
C465        C677   1.491       .  S
C466        C666   1.490       .  S
C467        C986   1.493       .  S
N468        C473   1.353       .  A
N468        C472   1.354       .  A
N468        H500   1.040       .  S
N469        C476   1.355       .  A
N469        C477   1.352       .  A
N470        C475   1.357       .  A
N470        C474   1.352       .  A
N470        H501   1.039       .  S
N471        C478   1.349       .  A
N471        C479   1.350       .  A
C472        C480   1.386   1_545  A
C472        C488   1.415       .  A
C473        C489   1.416       .  A
C473        C481   1.388   1_545  A
C474        C482   1.387   1_545  A
C474        C491   1.416       .  A
C475        C490   1.418       .  A
C475        C483   1.386   1_545  A
C476        C488   1.414       .  A
C476        C484   1.385       .  A
C477        C491   1.417       .  A
C477        C485   1.388       .  A
C478        C486   1.387       .  A
C478        C489   1.411       .  A
C479        C487   1.386       .  A
C479        C490   1.411       .  A
C480        C481   1.377       .  A
C480        H492   1.082       .  S
C481        H493   1.082       .  S
C482        C483   1.380       .  A
C482        H494   1.082       .  S
C483        H495   1.082       .  S
C484        C485   1.372       .  A
C484        H496   1.082       .  S
C485        H497   1.082       .  S
C486        C487   1.370       .  A
C486        H498   1.082       .  S
C487        H499   1.082       .  S
C488        C646   1.495       .  S
C489        C717   1.483       .  S
C490       C1097   1.490       .  S
C491        C997   1.483       .  S
Zn502       O506   1.957       .  S
Zn502       O507   2.038       .  S
Zn502       O511   2.004       .  S
Zn502       O518   2.010   1_455  S
Zn503       O506   1.947       .  S
Zn503       O508   2.049       .  S
Zn503       O510   2.016       .  S
Zn503       O514   2.003   1_554  S
Zn504       O506   1.940       .  S
Zn504       O509   2.013       .  S
Zn504       O512   2.007       .  S
Zn504       O515   2.011   1_545  S
Zn505       O506   1.969       .  S
Zn505       O513   2.057   1_545  S
Zn505       O516   2.052   1_554  S
Zn505       O517   2.053   1_455  S
O507        C519   1.276       .  A
O508        C520   1.276       .  A
O509        C521   1.274       .  A
O510        C519   1.274       .  A
O511        C521   1.272       .  A
O512        C520   1.272       .  A
O513        C522   1.279       .  A
O514        C523   1.275       .  A
O515        C522   1.275       .  A
O516        C523   1.280       .  A
O517        C524   1.278       .  A
O518        C524   1.275       .  A
C519        C597   1.493       .  S
C520        C637   1.491       .  S
C521        C626   1.476       .  S
C522        C837   1.490       .  S
C523        C926   1.489       .  S
C524        C966   1.488       .  S
N525        C530   1.352       .  A
N525        C529   1.351       .  A
N525        H557   1.039       .  S
N526        C533   1.354       .  A
N526        C534   1.351       .  A
N527        C532   1.357       .  A
N527        C531   1.357       .  A
N527        H558   1.039       .  S
N528        C535   1.353       .  A
N528        C536   1.351       .  A
C529        C537   1.388   1_455  A
C529        C545   1.413       .  A
C530        C546   1.410       .  A
C530        C538   1.386   1_455  A
C531        C539   1.386   1_455  A
C531        C548   1.421       .  A
C532        C547   1.423       .  A
C532        C540   1.387   1_455  A
C533        C545   1.413       .  A
C533        C541   1.384       .  A
C534        C548   1.417       .  A
C534        C542   1.389       .  A
C535        C543   1.384       .  A
C535        C546   1.410       .  A
C536        C544   1.389       .  A
C536        C547   1.418       .  A
C537        C538   1.374       .  A
C537        H549   1.082       .  S
C538        H550   1.082       .  S
C539        C540   1.381       .  A
C539        H551   1.082       .  S
C540        H552   1.082       .  S
C541        C542   1.372       .  A
C541        H553   1.082       .  S
C542        H554   1.082       .  S
C543        C544   1.371       .  A
C543        H555   1.082       .  S
C544        H556   1.082       .  S
C545        C686   1.486       .  S
C546        C617   1.483       .  S
C547        C697   1.498       .  S
C548        C746   1.492       .  S
N559        C564   1.351   1_556  A
N559        C563   1.353   1_556  A
N559        H591   1.039       .  S
N560        C567   1.354       .  A
N560        C568   1.350       .  A
N561        C566   1.356       .  A
N561        C565   1.354       .  A
N561        H592   1.040       .  S
N562        C569   1.352       .  A
N562        C570   1.352       .  A
C563        C571   1.388       .  A
C563        C579   1.416   1_554  A
C564        C580   1.412       .  A
C564        C572   1.386       .  A
C565        C573   1.387   1_556  A
C565        C582   1.419       .  A
C566        C581   1.419       .  A
C566        C574   1.386   1_556  A
C567        C579   1.413       .  A
C567        C575   1.384       .  A
C568        C582   1.416       .  A
C568        C576   1.389       .  A
C569        C577   1.385       .  A
C569        C580   1.410   1_556  A
C570        C578   1.387       .  A
C570        C581   1.415       .  A
C571        C572   1.378       .  A
C571        H583   1.082       .  S
C572        H584   1.082       .  S
C573        C574   1.380       .  A
C573        H585   1.082       .  S
C574        H586   1.082       .  S
C575        C576   1.372       .  A
C575        H587   1.082       .  S
C576        H588   1.082       .  S
C577        C578   1.369       .  A
C577        H589   1.082       .  S
C578        H590   1.082       .  S
C579        C606   1.492       .  S
C580       C1037   1.479       .  S
C581       C1306   1.498       .  S
C582        C657   1.485       .  S
C593        C594   1.402       .  A
C593        C598   1.396       .  A
C593        H603   1.084       .  S
C594        C595   1.408       .  A
C594        C599   1.488       .  S
C595        C596   1.406       .  A
C595        F600   1.357       .  S
C596        C597   1.410       .  A
C596        H601   1.083       .  S
C597        C598   1.412       .  A
C598        F602   1.357       .  S
C599        C604   1.409       .  A
C599        C608   1.406   1_554  A
C604        C605   1.403       .  A
C604        F609   1.357       .  S
C605        C606   1.405   1_554  A
C605        H610   1.083       .  S
C606        C607   1.404       .  A
C607        C608   1.398       .  A
C607        F611   1.357       .  S
C608        H612   1.083       .  S
C613        C614   1.402   1_655  A
C613        C618   1.399       .  A
C613        H623   1.083       .  S
C614        C615   1.405       .  A
C614        C619   1.473       .  S
C615        C616   1.398       .  A
C615        F620   1.358       .  S
C616        C617   1.402       .  A
C616        H621   1.083       .  S
C617        C618   1.405   1_455  A
C618        F622   1.357       .  S
C619        C624   1.403       .  A
C619        C628   1.401   1_455  A
C624        C625   1.397       .  A
C624        F629   1.357       .  S
C625        C626   1.405       .  A
C625        H630   1.083       .  S
C626        C627   1.409   1_455  A
C627        C628   1.398       .  A
C627        F631   1.358       .  S
C628        H632   1.083       .  S
C633        C634   1.409       .  A
C633        C638   1.407       .  A
C633        H643   1.083       .  S
C634        C635   1.408       .  A
C634        C639   1.496       .  S
C635        C636   1.396       .  A
C635        F640   1.358       .  S
C636        C637   1.407       .  A
C636        H641   1.083       .  S
C637        C638   1.410       .  A
C638        F642   1.357       .  S
C639        C644   1.411   1_545  A
C639        C648   1.407       .  A
C644        C645   1.406       .  A
C644        F649   1.357       .  S
C645        C646   1.406   1_565  A
C645        H650   1.083       .  S
C646        C647   1.404       .  A
C647        C648   1.397       .  A
C647        F651   1.357       .  S
C648        H652   1.083       .  S
C653        C654   1.404       .  A
C653        C658   1.396       .  A
C653        H663   1.083       .  S
C654        C655   1.407   1_554  A
C654        C659   1.482       .  S
C655        C656   1.403       .  A
C655        F660   1.357       .  S
C656        C657   1.405       .  A
C656        H661   1.083       .  S
C657        C658   1.403   1_556  A
C658        F662   1.358       .  S
C659        C664   1.404       .  A
C659        C668   1.403   1_554  A
C664        C665   1.395       .  A
C664        F669   1.358       .  S
C665        C666   1.408       .  A
C665        H670   1.083       .  S
C666        C667   1.413   1_554  A
C667        C668   1.405       .  A
C667        F671   1.357       .  S
C668        H672   1.083       .  S
C673        C674   1.406   1_655  A
C673        C678   1.401       .  A
C673        H683   1.083       .  S
C674        C675   1.408       .  A
C674        C679   1.490       .  S
C675        C676   1.400       .  A
C675        F680   1.358       .  S
C676        C677   1.409   1_455  A
C676        H681   1.083       .  S
C677        C678   1.410       .  A
C678        F682   1.357       .  S
C679        C684   1.410       .  A
C679        C688   1.407   1_455  A
C684        C685   1.401       .  A
C684        F689   1.357       .  S
C685        C686   1.403       .  A
C685        H690   1.083       .  S
C686        C687   1.403   1_455  A
C687        C688   1.399       .  A
C687        F691   1.357       .  S
C688        H692   1.083       .  S
C693        C694   1.405   1_655  A
C693        C698   1.399       .  A
C693        H703   1.082       .  S
C694        C695   1.412       .  A
C694        C699   1.494       .  S
C695        C696   1.402       .  A
C695        F700   1.357       .  S
C696        C697   1.403       .  A
C696        H701   1.083       .  S
C697        C698   1.409   1_455  A
C698        F702   1.358       .  S
C699        C704   1.412   1_455  A
C699        C708   1.406       .  A
C704        C705   1.405       .  A
C704        F709   1.357       .  S
C705        C706   1.404   1_655  A
C705        H710   1.083       .  S
C706        C707   1.406       .  A
C707        C708   1.395       .  A
C707        F711   1.358       .  S
C708        H712   1.083       .  S
C713        C714   1.405       .  A
C713        C718   1.393       .  A
C713        H723   1.083       .  S
C714        C715   1.409   1_565  A
C714        C719   1.483       .  S
C715        C716   1.400       .  A
C715        F720   1.357       .  S
C716        C717   1.402       .  A
C716        H721   1.083       .  S
C717        C718   1.404   1_545  A
C718        F722   1.358       .  S
C719        C724   1.404       .  A
C719        C728   1.407   1_565  A
C724        C725   1.390       .  A
C724        F729   1.358       .  S
C725        C726   1.407       .  A
C725        H730   1.083       .  S
C726        C727   1.410   1_565  A
C727        C728   1.404       .  A
C727        F731   1.357       .  S
C728        H732   1.083       .  S
C733        C734   1.403       .  A
C733        C738   1.399       .  A
C733        H743   1.084       .  S
C734        C735   1.405       .  A
C734        C739   1.488       .  S
C735        C736   1.406       .  A
C735        F740   1.357   1_655  S
C736        C737   1.411       .  A
C736        H741   1.083       .  S
C737        C738   1.413       .  A
C738        F742   1.357       .  S
C739        C744   1.406       .  A
C739        C748   1.407   1_655  A
C744        C745   1.398       .  A
C744        F749   1.357       .  S
C745        C746   1.403   1_655  A
C745        H750   1.083       .  S
C746        C747   1.407       .  A
C747        C748   1.406       .  A
C747        F751   1.357       .  S
C748        H752   1.083       .  S
C753        C754   1.405       .  A
C753        C758   1.398       .  A
C753        H763   1.083       .  S
C754        C755   1.406       .  A
C754        C759   1.478       .  S
C755        C756   1.397       .  A
C755        F760   1.357       .  S
C756        C757   1.402       .  A
C756        H761   1.083       .  S
C757        C758   1.403       .  A
C758        F762   1.357       .  S
C759        C764   1.407       .  A
C759        C768   1.400       .  A
C764        C765   1.401       .  A
C764        F769   1.358       .  S
C765        C766   1.406       .  A
C765        H770   1.083       .  S
C766        C767   1.409       .  A
C767        C768   1.394       .  A
C767        F771   1.358       .  S
C768        H772   1.084       .  S
C773        C774   1.405       .  A
C773        C778   1.396       .  A
C773        H783   1.083       .  S
C774        C775   1.407       .  A
C774        C779   1.482       .  S
C775        C776   1.401       .  A
C775        F780   1.357       .  S
C776        C777   1.403       .  A
C776        H781   1.083       .  S
C777        C778   1.402       .  A
C778        F782   1.357       .  S
C779        C784   1.406       .  A
C779        C788   1.404       .  A
C784        C785   1.399       .  A
C784        F789   1.358       .  S
C785        C786   1.407       .  A
C785        H790   1.083       .  S
C786        C787   1.409       .  A
C787        C788   1.399       .  A
C787        F791   1.357       .  S
C788        H792   1.083       .  S
C793        C794   1.406       .  A
C793        C798   1.405       .  A
C793        H803   1.083       .  S
C794        C795   1.408       .  A
C794        C799   1.489       .  S
C795        C796   1.398       .  A
C795        F800   1.357       .  S
C796        C797   1.402       .  A
C796        H801   1.083       .  S
C797        C798   1.409       .  A
C798        F802   1.358       .  S
C799        C804   1.408       .  A
C799        C808   1.407       .  A
C804        C805   1.400       .  A
C804        F809   1.357       .  S
C805        C806   1.403       .  A
C805        H810   1.083       .  S
C806        C807   1.405       .  A
C807        C808   1.403       .  A
C807        F811   1.357       .  S
C808        H812   1.083       .  S
C813        C814   1.404       .  A
C813        C818   1.394       .  A
C813        H823   1.083       .  S
C814        C815   1.410       .  A
C814        C819   1.487       .  S
C815        C816   1.405       .  A
C815        F820   1.357       .  S
C816        C817   1.404       .  A
C816        H821   1.083       .  S
C817        C818   1.405       .  A
C818        F822   1.358       .  S
C819        C824   1.408       .  A
C819        C828   1.406       .  A
C824        C825   1.404       .  A
C824        F829   1.357       .  S
C825        C826   1.405       .  A
C825        H830   1.083       .  S
C826        C827   1.403       .  A
C827        C828   1.395       .  A
C827        F831   1.358       .  S
C828        H832   1.083       .  S
C833        C834   1.401       .  A
C833        C838   1.398       .  A
C833        H843   1.084       .  S
C834        C835   1.405       .  A
C834        C839   1.483       .  S
C835        C836   1.407   1_655  A
C835        F840   1.357   1_655  S
C836        C837   1.409       .  A
C836        H841   1.083       .  S
C837        C838   1.411   1_455  A
C838        F842   1.358       .  S
C839        C844   1.405   1_655  A
C839        C848   1.405       .  A
C844        C845   1.399       .  A
C844        F849   1.358       .  S
C845        C846   1.404   1_455  A
C845        H850   1.083       .  S
C846        C847   1.407       .  A
C847        C848   1.406       .  A
C847        F851   1.357       .  S
C848        H852   1.083       .  S
C853        C854   1.406   1_655  A
C853        C858   1.406       .  A
C853        H863   1.083       .  S
C854        C855   1.406       .  A
C854        C859   1.488   1_455  S
C855        C856   1.401       .  A
C855        F860   1.357       .  S
C856        C857   1.406       .  A
C856        H861   1.083       .  S
C857        C858   1.407   1_455  A
C858        F862   1.357       .  S
C859        C864   1.404       .  A
C859        C868   1.405   1_655  A
C864        C865   1.399       .  A
C864        F869   1.358       .  S
C865        C866   1.409       .  A
C865        H870   1.083       .  S
C866        C867   1.414       .  A
C867        C868   1.409   1_655  A
C867        F871   1.357   1_655  S
C868        H872   1.083       .  S
C873        C874   1.403       .  A
C873        C878   1.397       .  A
C873        H883   1.083       .  S
C874        C875   1.405   1_655  A
C874        C879   1.479       .  S
C875        C876   1.401       .  A
C875        F880   1.357       .  S
C876        C877   1.405   1_455  A
C876        H881   1.083       .  S
C877        C878   1.407       .  A
C878        F882   1.358       .  S
C879        C884   1.402       .  A
C879        C888   1.404       .  A
C884        C885   1.395       .  A
C884        F889   1.358       .  S
C885        C886   1.409       .  A
C885        H890   1.083       .  S
C886        C887   1.411       .  A
C887        C888   1.402       .  A
C887        F891   1.357       .  S
C888        H892   1.083       .  S
C893        C894   1.404   1_655  A
C893        C898   1.399       .  A
C893        H903   1.083       .  S
C894        C895   1.405       .  A
C894        C899   1.475       .  S
C895        C896   1.396       .  A
C895        F900   1.358       .  S
C896        C897   1.402   1_455  A
C896        H901   1.083       .  S
C897        C898   1.404       .  A
C898        F902   1.357       .  S
C899        C904   1.404   1_455  A
C899        C908   1.399       .  A
C904        C905   1.402       .  A
C904        F909   1.357       .  S
C905        C906   1.407   1_655  A
C905        H910   1.083       .  S
C906        C907   1.414       .  A
C907        C908   1.393       .  A
C907        F911   1.358       .  S
C908        H912   1.084       .  S
C913        C914   1.403   1_565  A
C913        C918   1.401       .  A
C913        H923   1.083       .  S
C914        C915   1.407       .  A
C914        C919   1.480       .  S
C915        C916   1.398       .  A
C915        F920   1.358       .  S
C916        C917   1.402       .  A
C916        H921   1.083       .  S
C917        C918   1.405   1_545  A
C918        F922   1.357       .  S
C919        C924   1.405       .  A
C919        C928   1.400       .  A
C924        C925   1.405       .  A
C924        F929   1.357       .  S
C925        C926   1.409       .  A
C925        H930   1.083       .  S
C926        C927   1.412       .  A
C927        C928   1.394       .  A
C927        F931   1.358       .  S
C928        H932   1.084       .  S
C933        C934   1.407       .  A
C933        C938   1.402       .  A
C933        H943   1.083       .  S
C934        C935   1.407   1_565  A
C934        C939   1.488       .  S
C935        C936   1.396       .  A
C935        F940   1.358       .  S
C936        C937   1.405       .  A
C936        H941   1.083       .  S
C937        C938   1.406   1_545  A
C938        F942   1.357       .  S
C939        C944   1.408       .  A
C939        C948   1.407   1_565  A
C944        C945   1.398       .  A
C944        F949   1.358       .  S
C945        C946   1.404       .  A
C945        H950   1.084       .  S
C946        C947   1.405   1_565  A
C947        C948   1.401       .  A
C947        F951   1.357       .  S
C948        H952   1.083       .  S
C953        C954   1.406       .  A
C953        C958   1.403       .  A
C953        H963   1.083       .  S
C954        C955   1.406   1_554  A
C954        C959   1.482       .  S
C955        C956   1.395       .  A
C955        F960   1.357       .  S
C956        C957   1.401   1_556  A
C956        H961   1.083       .  S
C957        C958   1.405       .  A
C958        F962   1.357       .  S
C959        C964   1.405       .  A
C959        C968   1.404       .  A
C964        C965   1.395       .  A
C964        F969   1.358   1_554  S
C965        C966   1.406       .  A
C965        H970   1.083       .  S
C966        C967   1.412       .  A
C967        C968   1.405       .  A
C967        F971   1.357       .  S
C968        H972   1.083       .  S
C973        C974   1.406       .  A
C973        C978   1.398       .  A
C973        H983   1.083       .  S
C974        C975   1.408   1_554  A
C974        C979   1.489       .  S
C975        C976   1.405       .  A
C975        F980   1.357       .  S
C976        C977   1.406   1_556  A
C976        H981   1.083       .  S
C977        C978   1.404       .  A
C978        F982   1.357       .  S
C979        C984   1.405       .  A
C979        C988   1.406       .  A
C984        C985   1.397       .  A
C984        F989   1.358       .  S
C985        C986   1.408       .  A
C985        H990   1.083       .  S
C986        C987   1.411       .  A
C987        C988   1.407       .  A
C987        F991   1.357       .  S
C988        H992   1.083       .  S
C993        C994   1.407       .  A
C993        C998   1.399       .  A
C993       H1003   1.083       .  S
C994        C995   1.408   1_545  A
C994        C999   1.486       .  S
C995        C996   1.398       .  A
C995       F1000   1.357       .  S
C996        C997   1.402   1_565  A
C996       H1001   1.083       .  S
C997        C998   1.403       .  A
C998       F1002   1.357       .  S
C999       C1004   1.408   1_545  A
C999       C1008   1.405       .  A
C1004      C1005   1.397   1_565  A
C1004      F1009   1.357       .  S
C1005      C1006   1.404       .  A
C1005      H1010   1.083   1_545  S
C1006      C1007   1.410       .  A
C1007      C1008   1.401       .  A
C1007      F1011   1.357       .  S
C1008      H1012   1.083       .  S
C1013      C1014   1.406   1_565  A
C1013      C1018   1.406       .  A
C1013      H1023   1.083       .  S
C1014      C1015   1.402       .  A
C1014      C1019   1.479   1_545  S
C1015      C1016   1.389       .  A
C1015      F1020   1.358       .  S
C1016      C1017   1.408       .  A
C1016      H1021   1.083       .  S
C1017      C1018   1.411   1_545  A
C1018      F1022   1.357       .  S
C1019      C1024   1.406       .  A
C1019      C1028   1.404   1_565  A
C1024      C1025   1.401       .  A
C1024      F1029   1.357       .  S
C1025      C1026   1.406       .  A
C1025      H1030   1.083       .  S
C1026      C1027   1.405   1_565  A
C1027      C1028   1.394       .  A
C1027      F1031   1.358       .  S
C1028      H1032   1.084       .  S
C1033      C1034   1.405       .  A
C1033      C1038   1.393       .  A
C1033      H1043   1.083       .  S
C1034      C1035   1.406   1_556  A
C1034      C1039   1.479       .  S
C1035      C1036   1.401       .  A
C1035      F1040   1.357       .  S
C1036      C1037   1.404       .  A
C1036      H1041   1.083       .  S
C1037      C1038   1.400   1_554  A
C1038      F1042   1.358       .  S
C1039      C1044   1.404       .  A
C1039      C1048   1.407   1_556  A
C1044      C1045   1.390       .  A
C1044      F1049   1.358       .  S
C1045      C1046   1.403       .  A
C1045      H1050   1.084       .  S
C1046      C1047   1.405       .  A
C1047      C1048   1.404   1_556  A
C1047      F1051   1.357       .  S
C1048      H1052   1.083       .  S
C1053      C1054   1.400       .  A
C1053      C1058   1.397       .  A
C1053      H1063   1.084       .  S
C1054      C1055   1.406   1_556  A
C1054      C1059   1.480       .  S
C1055      C1056   1.402       .  A
C1055      F1060   1.357       .  S
C1056      C1057   1.408   1_554  A
C1056      H1061   1.083       .  S
C1057      C1058   1.413       .  A
C1058      F1062   1.357       .  S
C1059      C1064   1.406   1_556  A
C1059      C1068   1.404       .  A
C1064      C1065   1.401       .  A
C1064      F1069   1.357       .  S
C1065      C1066   1.403   1_554  A
C1065      H1070   1.083       .  S
C1066      C1067   1.406       .  A
C1067      C1068   1.397       .  A
C1067      F1071   1.358       .  S
C1068      H1072   1.083       .  S
C1073      C1074   1.405       .  A
C1073      C1078   1.399       .  A
C1073      H1083   1.083       .  S
C1074      C1075   1.406       .  A
C1074      C1079   1.481       .  S
C1075      C1076   1.397       .  A
C1075      F1080   1.357       .  S
C1076      C1077   1.403       .  A
C1076      H1081   1.083       .  S
C1077      C1078   1.406       .  A
C1078      F1082   1.357       .  S
C1079      C1084   1.406       .  A
C1079      C1088   1.401       .  A
C1084      C1085   1.402       .  A
C1084      F1089   1.357       .  S
C1085      C1086   1.406       .  A
C1085      H1090   1.083       .  S
C1086      C1087   1.412       .  A
C1087      C1088   1.395       .  A
C1087      F1091   1.358       .  S
C1088      H1092   1.084       .  S
C1093      C1094   1.406       .  A
C1093      C1098   1.400       .  A
C1093      H1103   1.083       .  S
C1094      C1095   1.410   1_565  A
C1094      C1099   1.492       .  S
C1095      C1096   1.403       .  A
C1095      F1100   1.357       .  S
C1096      C1097   1.403       .  A
C1096      H1101   1.083       .  S
C1097      C1098   1.405   1_545  A
C1098      F1102   1.358       .  S
C1099      C1104   1.409   1_565  A
C1099      C1108   1.404       .  A
C1104      C1105   1.402       .  A
C1104      F1109   1.357       .  S
C1105      C1106   1.407   1_545  A
C1105      H1110   1.083       .  S
C1106      C1107   1.414       .  A
C1107      C1108   1.401       .  A
C1107      F1111   1.358       .  S
C1108      H1112   1.083       .  S
C1113      C1114   1.405       .  A
C1113      C1118   1.396       .  A
C1113      H1123   1.083       .  S
C1114      C1115   1.406       .  A
C1114      C1119   1.482       .  S
C1115      C1116   1.403       .  A
C1115      F1120   1.357       .  S
C1116      C1117   1.405       .  A
C1116      H1121   1.083       .  S
C1117      C1118   1.402       .  A
C1118      F1122   1.357       .  S
C1119      C1124   1.401       .  A
C1119      C1128   1.407       .  A
C1124      C1125   1.392       .  A
C1124      F1129   1.358       .  S
C1125      C1126   1.408       .  A
C1125      H1130   1.083       .  S
C1126      C1127   1.411       .  A
C1127      C1128   1.408       .  A
C1127      F1131   1.357       .  S
C1128      H1132   1.083       .  S
C1133      C1134   1.408   1_545  A
C1133      C1138   1.403       .  A
C1133      H1143   1.083       .  S
C1134      C1135   1.407       .  A
C1134      C1139   1.486       .  S
C1135      C1136   1.396       .  A
C1135      F1140   1.358       .  S
C1136      C1137   1.402       .  A
C1136      H1141   1.084       .  S
C1137      C1138   1.404   1_565  A
C1138      F1142   1.357       .  S
C1139      C1144   1.410       .  A
C1139      C1148   1.405   1_565  A
C1144      C1145   1.397       .  A
C1144      F1149   1.357       .  S
C1145      C1146   1.399       .  A
C1145      H1150   1.083       .  S
C1146      C1147   1.405   1_565  A
C1147      C1148   1.401       .  A
C1147      F1151   1.357       .  S
C1148      H1152   1.083       .  S
C1153      C1154   1.404       .  A
C1153      C1158   1.402       .  A
C1153      H1163   1.083       .  S
C1154      C1155   1.407       .  A
C1154      C1159   1.488       .  S
C1155      C1156   1.401       .  A
C1155      F1160   1.358       .  S
C1156      C1157   1.409       .  A
C1156      H1161   1.083       .  S
C1157      C1158   1.412       .  A
C1158      F1162   1.357       .  S
C1159      C1164   1.409       .  A
C1159      C1168   1.405       .  A
C1164      C1165   1.402       .  A
C1164      F1169   1.357       .  S
C1165      C1166   1.404       .  A
C1165      H1170   1.083       .  S
C1166      C1167   1.405       .  A
C1167      C1168   1.399       .  A
C1167      F1171   1.358       .  S
C1168      H1172   1.083       .  S
C1173      C1174   1.402       .  A
C1173      C1178   1.400       .  A
C1173      H1183   1.083       .  S
C1174      C1175   1.405       .  A
C1174      C1179   1.482       .  S
C1175      C1176   1.401       .  A
C1175      F1180   1.357       .  S
C1176      C1177   1.408       .  A
C1176      H1181   1.083       .  S
C1177      C1178   1.414       .  A
C1178      F1182   1.358       .  S
C1179      C1184   1.407       .  A
C1179      C1188   1.403       .  A
C1184      C1185   1.403       .  A
C1184      F1189   1.357       .  S
C1185      C1186   1.404       .  A
C1185      H1190   1.083       .  S
C1186      C1187   1.406       .  A
C1187      C1188   1.397       .  A
C1187      F1191   1.358       .  S
C1188      H1192   1.083       .  S
C1193      C1194   1.407       .  A
C1193      C1198   1.402       .  A
C1193      H1203   1.083       .  S
C1194      C1195   1.410       .  A
C1194      C1199   1.495       .  S
C1195      C1196   1.402       .  A
C1195      F1200   1.357       .  S
C1196      C1197   1.403       .  A
C1196      H1201   1.083       .  S
C1197      C1198   1.405       .  A
C1198      F1202   1.357       .  S
C1199      C1204   1.409       .  A
C1199      C1208   1.405       .  A
C1204      C1205   1.401       .  A
C1204      F1209   1.357       .  S
C1205      C1206   1.406       .  A
C1205      H1210   1.083       .  S
C1206      C1207   1.414       .  A
C1207      C1208   1.403       .  A
C1207      F1211   1.358       .  S
C1208      H1212   1.083       .  S
C1213      C1214   1.406       .  A
C1213      C1218   1.396       .  A
C1213      H1223   1.083       .  S
C1214      C1215   1.410       .  A
C1214      C1219   1.490       .  S
C1215      C1216   1.401       .  A
C1215      F1220   1.357       .  S
C1216      C1217   1.403       .  A
C1216      H1221   1.083       .  S
C1217      C1218   1.406       .  A
C1218      F1222   1.358       .  S
C1219      C1224   1.411       .  A
C1219      C1228   1.406       .  A
C1224      C1225   1.400       .  A
C1224      F1229   1.357       .  S
C1225      C1226   1.401       .  A
C1225      H1230   1.083       .  S
C1226      C1227   1.408       .  A
C1227      C1228   1.398       .  A
C1227      F1231   1.358       .  S
C1228      H1232   1.083       .  S
C1233      C1234   1.397       .  A
C1233      C1238   1.388       .  A
C1233      H1243   1.084       .  S
C1234      C1235   1.406   1_556  A
C1234      C1239   1.474   1_556  S
C1235      C1236   1.404       .  A
C1235      F1240   1.357       .  S
C1236      C1237   1.408   1_554  A
C1236      H1241   1.083       .  S
C1237      C1238   1.413       .  A
C1238      F1242   1.358       .  S
C1239      C1244   1.405   1_554  A
C1239      C1248   1.404       .  A
C1244      C1245   1.392       .  A
C1244      F1249   1.358       .  S
C1245      C1246   1.402   1_556  A
C1245      H1250   1.084       .  S
C1246      C1247   1.405       .  A
C1247      C1248   1.400       .  A
C1247      F1251   1.357       .  S
C1248      H1252   1.083       .  S
C1253      C1254   1.400       .  A
C1253      C1258   1.389       .  A
C1253      H1263   1.084       .  S
C1254      C1255   1.409       .  A
C1254      C1259   1.479       .  S
C1255      C1256   1.404       .  A
C1255      F1260   1.357       .  S
C1256      C1257   1.403       .  A
C1256      H1261   1.083       .  S
C1257      C1258   1.408       .  A
C1258      F1262   1.359       .  S
C1259      C1264   1.409       .  A
C1259      C1268   1.405       .  A
C1264      C1265   1.393       .  A
C1264      F1269   1.358       .  S
C1265      C1266   1.398       .  A
C1265      H1270   1.084       .  S
C1266      C1267   1.403       .  A
C1267      C1268   1.399       .  A
C1267      F1271   1.357       .  S
C1268      H1272   1.083       .  S
C1273      C1274   1.405       .  A
C1273      C1278   1.400       .  A
C1273      H1283   1.083       .  S
C1274      C1275   1.410       .  A
C1274      C1279   1.487       .  S
C1275      C1276   1.401       .  A
C1275      F1280   1.358       .  S
C1276      C1277   1.402       .  A
C1276      H1281   1.083       .  S
C1277      C1278   1.405       .  A
C1278      F1282   1.357       .  S
C1279      C1284   1.404       .  A
C1279      C1288   1.407       .  A
C1284      C1285   1.398       .  A
C1284      F1289   1.358       .  S
C1285      C1286   1.410       .  A
C1285      H1290   1.083       .  S
C1286      C1287   1.409       .  A
C1287      C1288   1.403       .  A
C1287      F1291   1.357       .  S
C1288      H1292   1.083       .  S
C1293      C1294   1.410   1_554  A
C1293      C1298   1.405       .  A
C1293      H1303   1.083       .  S
C1294      C1295   1.411       .  A
C1294      C1299   1.498       .  S
C1295      C1296   1.399       .  A
C1295      F1300   1.357       .  S
C1296      C1297   1.404       .  A
C1296      H1301   1.084       .  S
C1297      C1298   1.406   1_556  A
C1298      F1302   1.357       .  S
C1299      C1304   1.410   1_556  A
C1299      C1308   1.410       .  A
C1304      C1305   1.400       .  A
C1304      F1309   1.357       .  S
C1305      C1306   1.406   1_554  A
C1305      H1310   1.083       .  S
C1306      C1307   1.405       .  A
C1307      C1308   1.403       .  A
C1307      F1311   1.357       .  S
C1308      H1312   1.083       .  S
C1313      C1314   1.406       .  A
C1313      C1318   1.400       .  A
C1313      H1323   1.083       .  S
C1314      C1315   1.408       .  A
C1314      C1319   1.485       .  S
C1315      C1316   1.400       .  A
C1315      F1320   1.357       .  S
C1316      C1317   1.403       .  A
C1316      H1321   1.083       .  S
C1317      C1318   1.404       .  A
C1318      F1322   1.357       .  S
C1319      C1324   1.406       .  A
C1319      C1328   1.404       .  A
C1324      C1325   1.402       .  A
C1324      F1329   1.358       .  S
C1325      C1326   1.409       .  A
C1325      H1330   1.083       .  S
C1326      C1327   1.408       .  A
C1327      C1328   1.398       .  A
C1327      F1331   1.357       .  S
C1328      H1332   1.083       .  S
C1333      C1334   1.407       .  A
C1333      C1338   1.395       .  A
C1333      H1343   1.083       .  S
C1334      C1335   1.410       .  A
C1334      C1339   1.487       .  S
C1335      C1336   1.401       .  A
C1335      F1340   1.357       .  S
C1336      C1337   1.402       .  A
C1336      H1341   1.083       .  S
C1337      C1338   1.402       .  A
C1338      F1342   1.358       .  S
C1339      C1344   1.409       .  A
C1339      C1348   1.403       .  A
C1344      C1345   1.401       .  A
C1344      F1349   1.357       .  S
C1345      C1346   1.406       .  A
C1345      H1350   1.083       .  S
C1346      C1347   1.412       .  A
C1347      C1348   1.396       .  A
C1347      F1351   1.358       .  S
C1348      H1352   1.083       .  S
C1353      C1354   1.398       .  A
C1353      C1358   1.389       .  A
C1353      H1363   1.084       .  S
C1354      C1355   1.408       .  A
C1354      C1359   1.481       .  S
C1355      C1356   1.405       .  A
C1355      F1360   1.357       .  S
C1356      C1357   1.408       .  A
C1356      H1361   1.083       .  S
C1357      C1358   1.413       .  A
C1358      F1362   1.358       .  S
C1359      C1364   1.408       .  A
C1359      C1368   1.405       .  A
C1364      C1365   1.394       .  A
C1364      F1369   1.358       .  S
C1365      C1366   1.401       .  A
C1365      H1370   1.083       .  S
C1366      C1367   1.406       .  A
C1367      C1368   1.402       .  A
C1367      F1371   1.357       .  S
C1368      H1372   1.083       .  S
C1373      C1374   1.403       .  A
C1373      C1378   1.400       .  A
C1373      H1383   1.083       .  S
C1374      C1375   1.404       .  A
C1374      C1379   1.478       .  S
C1375      C1376   1.398       .  A
C1375      F1380   1.358       .  S
C1376      C1377   1.407       .  A
C1376      H1381   1.083       .  S
C1377      C1378   1.409       .  A
C1378      F1382   1.357       .  S
C1379      C1384   1.406       .  A
C1379      C1388   1.404       .  A
C1384      C1385   1.400       .  A
C1384      F1389   1.357       .  S
C1385      C1386   1.403       .  A
C1385      H1390   1.083       .  S
C1386      C1387   1.403       .  A
C1387      C1388   1.398       .  A
C1387      F1391   1.357       .  S
C1388      H1392   1.083       .  S
C1393      C1394   1.405       .  A
C1393      C1398   1.398       .  A
C1393      H1403   1.083       .  S
C1394      C1395   1.408       .  A
C1394      C1399   1.482       .  S
C1395      C1396   1.399       .  A
C1395      F1400   1.358       .  S
C1396      C1397   1.403       .  A
C1396      H1401   1.083       .  S
C1397      C1398   1.404       .  A
C1398      F1402   1.357       .  S
C1399      C1404   1.404       .  A
C1399      C1408   1.404       .  A
C1404      C1405   1.400       .  A
C1404      F1409   1.358       .  S
C1405      C1406   1.410       .  A
C1405      H1410   1.083       .  S
C1406      C1407   1.409       .  A
C1407      C1408   1.397       .  A
C1407      F1411   1.357       .  S
C1408      H1412   1.083       .  S
C1413      C1414   1.411       .  A
C1413      C1418   1.406       .  A
C1413      H1423   1.082       .  S
C1414      C1415   1.411       .  A
C1414      C1419   1.498       .  S
C1415      C1416   1.396       .  A
C1415      F1420   1.357       .  S
C1416      C1417   1.402       .  A
C1416      H1421   1.084       .  S
C1417      C1418   1.407       .  A
C1418      F1422   1.357       .  S
C1419      C1424   1.411       .  A
C1419      C1428   1.410       .  A
C1424      C1425   1.401       .  A
C1424      F1429   1.357       .  S
C1425      C1426   1.405       .  A
C1425      H1430   1.083       .  S
C1426      C1427   1.403       .  A
C1427      C1428   1.400       .  A
C1427      F1431   1.357       .  S
C1428      H1432   1.083       .  S
C1433      C1434   1.406       .  A
C1433      C1438   1.406       .  A
C1433      H1443   1.083       .  S
C1434      C1435   1.405       .  A
C1434      C1439   1.485       .  S
C1435      C1436   1.391       .  A
C1435      F1440   1.358       .  S
C1436      C1437   1.406       .  A
C1436      H1441   1.083       .  S
C1437      C1438   1.412       .  A
C1438      F1442   1.357       .  S
C1439      C1444   1.409       .  A
C1439      C1448   1.405       .  A
C1444      C1445   1.404       .  A
C1444      F1449   1.357       .  S
C1445      C1446   1.404       .  A
C1445      H1450   1.083       .  S
C1446      C1447   1.403       .  A
C1447      C1448   1.394       .  A
C1447      F1451   1.358       .  S
C1448      H1452   1.083       .  S
C1453      C1454   1.405       .  A
C1453      C1458   1.403       .  A
C1453      H1463   1.083       .  S
C1454      C1455   1.404       .  A
C1454      C1459   1.479       .  S
C1455      C1456   1.396       .  A
C1455      F1460   1.358       .  S
C1456      C1457   1.403       .  A
C1456      H1461   1.084       .  S
C1457      C1458   1.404       .  A
C1458      F1462   1.357       .  S
C1459      C1464   1.408       .  A
C1459      C1468   1.402       .  A
C1464      C1465   1.398       .  A
C1464      F1469   1.358       .  S
C1465      C1466   1.402       .  A
C1465      H1470   1.083       .  S
C1466      C1467   1.408       .  A
C1467      C1468   1.400       .  A
C1467      F1471   1.357       .  S
C1468      H1472   1.083       .  S
C1473      C1474   1.405       .  A
C1473      C1478   1.398       .  A
C1473      H1483   1.083       .  S
C1474      C1475   1.407       .  A
C1474      C1479   1.485       .  S
C1475      C1476   1.404       .  A
C1475      F1480   1.357       .  S
C1476      C1477   1.406       .  A
C1476      H1481   1.083       .  S
C1477      C1478   1.403       .  A
C1478      F1482   1.357       .  S
C1479      C1484   1.403       .  A
C1479      C1488   1.405       .  A
C1484      C1485   1.394       .  A
C1484      F1489   1.358       .  S
C1485      C1486   1.407       .  A
C1485      H1490   1.083       .  S
C1486      C1487   1.414       .  A
C1487      C1488   1.408       .  A
C1487      F1491   1.357       .  S
C1488      H1492   1.083       .  S
C1493      C1494   1.406       .  A
C1493      C1498   1.403       .  A
C1493      H1503   1.083       .  S
C1494      C1495   1.406       .  A
C1494      C1499   1.484       .  S
C1495      C1496   1.397       .  A
C1495      F1500   1.358       .  S
C1496      C1497   1.404       .  A
C1496      H1501   1.083       .  S
C1497      C1498   1.405       .  A
C1498      F1502   1.357       .  S
C1499      C1504   1.405       .  A
C1499      C1508   1.405       .  A
C1504      C1505   1.394       .  A
C1504      F1509   1.358       .  S
C1505      C1506   1.405       .  A
C1505      H1510   1.083       .  S
C1506      C1507   1.411       .  A
C1507      C1508   1.405       .  A
C1507      F1511   1.357       .  S
C1508      H1512   1.083       .  S
C1513      C1514   1.408       .  A
C1513      C1518   1.400       .  A
C1513      H1523   1.083       .  S
C1514      C1515   1.408       .  A
C1514      C1519   1.492       .  S
C1515      C1516   1.404       .  A
C1515      F1520   1.357       .  S
C1516      C1517   1.405       .  A
C1516      H1521   1.083       .  S
C1517      C1518   1.404       .  A
C1518      F1522   1.357       .  S
C1519      C1524   1.403       .  A
C1519      C1528   1.409       .  A
C1524      C1525   1.395       .  A
C1524      F1529   1.358       .  S
C1525      C1526   1.410       .  A
C1525      H1530   1.083       .  S
C1526      C1527   1.411       .  A
C1527      C1528   1.410       .  A
C1527      F1531   1.357       .  S
C1528      H1532   1.083       .  S
C1533      C1534   1.405       .  A
C1533      C1538   1.402       .  A
C1533      H1543   1.083       .  S
C1534      C1535   1.410       .  A
C1534      C1539   1.486       .  S
C1535      C1536   1.398       .  A
C1535      F1540   1.358       .  S
C1536      C1537   1.400       .  A
C1536      H1541   1.083       .  S
C1537      C1538   1.405       .  A
C1538      F1542   1.357       .  S
C1539      C1544   1.409       .  A
C1539      C1548   1.401       .  A
C1544      C1545   1.407       .  A
C1544      F1549   1.357       .  S
C1545      C1546   1.407       .  A
C1545      H1550   1.083       .  S
C1546      C1547   1.412       .  A
C1547      C1548   1.393       .  A
C1547      F1551   1.358       .  S
C1548      H1552   1.084       .  S
