geometry optimzed in LAMMPS
_audit_creation_date              2020-11-30 
_audit_creation_method            'lammps2cif' 
_symmetry_space_group_name_H-M    'P1' 
_symmetry_Int_Tables_number       1 
_symmetry_cell_setting            triclinic 
loop_ 
_symmetry_equiv_pos_as_xyz 
  x,y,z 
_cell_length_a                    28.83517027 
_cell_length_b                    28.965752123094276 
_cell_length_c                    29.177027975435365 
_cell_angle_alpha                 89.97214910714483 
_cell_angle_beta                  90.20560376395706 
_cell_angle_gamma                 89.89782969482353 
loop_ 
_atom_site_label 
_atom_site_type_symbol 
_atom_site_fract_x 
_atom_site_fract_y 
_atom_site_fract_z 
_atom_site_charge 
N1          N  0.61451964  0.45501335  0.02889979    -0.07000
N2          N  0.65455374  0.44923599  0.04987328    -0.59100
N3          N  0.56606505  0.43050078  0.43048739    -0.06600
N4          N  0.57287975  0.40643231  0.39282175    -0.61200
N5          N  0.58911768  0.46960608  0.42882034    -0.06200
N6          N  0.61196732  0.47288826  0.38990614    -0.59100
N7          N  0.58929679  0.41752361  0.03138595    -0.05900
N8          N  0.61142937  0.38527667  0.05423202    -0.61600
C9          C  0.65207116  0.40554756  0.06538594     0.95200
C10         C  0.60134293  0.43327371  0.36759521     0.95000
N11         N  0.42965460  0.43199592  0.45617567    -0.07100
N12         N  0.39711236  0.42203299  0.42643868    -0.59700
N13         N  0.48323739  0.39506810  0.05237130    -0.05300
N14         N  0.48602703  0.36340999  0.08517269    -0.60900
N15         N  0.44569398  0.42016279  0.05799003    -0.05000
N16         N  0.42275458  0.40723698  0.09427995    -0.59900
N17         N  0.46565386  0.40507899  0.45030483    -0.04900
N18         N  0.45835058  0.37554162  0.41709106    -0.61000
Mn19       Mn  0.52660895  0.40998606  0.99156493     1.18400
C20         C  0.41552612  0.38664143  0.40257066     0.97300
C21         C  0.44802029  0.37233376  0.11134165     0.98000
N22         N  0.57156353  0.57362267  0.44988853    -0.07200
N23         N  0.59671819  0.59451400  0.41883475    -0.63500
N24         N  0.55012410  0.57659451  0.06249441    -0.06000
N25         N  0.55200825  0.59579804  0.10294997    -0.64200
N26         N  0.58932041  0.55604376  0.05229843    -0.06700
N27         N  0.61981560  0.56254869  0.08556216    -0.63800
N28         N  0.53537530  0.59872558  0.46077728    -0.05600
N29         N  0.53529585  0.63789590  0.43744431    -0.64500
Mn30       Mn  0.59292972  0.51422501  0.48944931     1.10700
C31         C  0.57365485  0.63422142  0.41112731     0.98500
C32         C  0.59548314  0.58717121  0.11695444     0.98600
N33         N  0.42355812  0.52027059  0.07438370    -0.06700
N34         N  0.39634358  0.51739325  0.11034257    -0.62100
N35         N  0.43205184  0.57318366  0.47381826    -0.06000
N36         N  0.41478779  0.60559761  0.44758594    -0.58800
N37         N  0.40602405  0.53616420  0.47281833    -0.07300
N38         N  0.36948389  0.54301412  0.44641442    -0.61600
N39         N  0.44800357  0.55821889  0.07547917    -0.06300
N40         N  0.43769223  0.58261275  0.11201899    -0.58800
Mn41       Mn  0.42466147  0.47660077  0.01485152     1.20200
Mn42       Mn  0.49131505  0.57825388  0.51811453     1.10100
Cl43       Cl  0.50891088  0.49471399  0.00327196    -0.86800
C44         C  0.40567128  0.55656050  0.13355418     0.95500
C45         C  0.37557901  0.58664184  0.43098062     0.95300
N46         N  0.41305363  0.93463623  0.04862272    -0.07000
N47         N  0.37955608  0.90484778  0.05763357    -0.59100
N48         N  0.43543162  0.03834278  0.09182535    -0.06600
N49         N  0.42033342  0.05992681  0.12877988    -0.61200
N50         N  0.40266956  0.03799225  0.06012366    -0.06200
N51         N  0.36495890  0.05903778  0.07584194    -0.59100
N52         N  0.44446243  0.93431553  0.08176006    -0.05900
N53         N  0.43231110  0.90410988  0.11377382    -0.61600
C54         C  0.39210391  0.88556670  0.09797116     0.95200
C55         C  0.37610519  0.07266976  0.11907255     0.95000
N56         N  0.58078065  0.05554804  0.06309397    -0.07100
N57         N  0.61405207  0.08310781  0.07852649    -0.59700
N58         N  0.55849620  0.94487623  0.08373974    -0.05300
N59         N  0.57575652  0.91713184  0.11572069    -0.60900
N60         N  0.58974462  0.95159932  0.05156628    -0.07200
N61         N  0.62809813  0.92839857  0.06074944    -0.59900
N62         N  0.54939357  0.04890885  0.09526686    -0.04900
N63         N  0.56149467  0.07175081  0.13298802    -0.61000
Mn64       Mn  0.49684412  0.99155692  0.08845165     1.18400
C65         C  0.60185399  0.09350113  0.12221701     0.97300
C66         C  0.61895041  0.90648210  0.10043789     0.98000
N67         N  0.40319877  0.04930446  0.44824721    -0.07200
N68         N  0.36487691  0.07228767  0.43781464    -0.63500
N69         N  0.44442194  0.95245832  0.40542526    -0.06000
N70         N  0.43284869  0.93010500  0.36737369    -0.64200
N71         N  0.41253922  0.94566526  0.43702403    -0.06700
N72         N  0.37950948  0.91826285  0.42065144    -0.63800
N73         N  0.43513578  0.05590115  0.41647746    -0.05600
N74         N  0.41855895  0.08350358  0.38395640    -0.64500
Mn75       Mn  0.40801159  0.99191746  0.99858036     1.10700
C76         C  0.37480121  0.09355117  0.39782359     0.98500
C77         C  0.39225155  0.90835911  0.37689975     0.98600
N78         N  0.58956560  0.96097144  0.44325734    -0.06700
N79         N  0.62524391  0.93450312  0.43193150    -0.62100
N80         N  0.55037884  0.06541196  0.41827573    -0.06000
N81         N  0.56433897  0.09329012  0.38495977    -0.58800
N82         N  0.58163118  0.06494836  0.45154264    -0.07300
N83         N  0.61685935  0.09224421  0.44129863    -0.61600
N84         N  0.55820496  0.96120984  0.41025966    -0.06300
N85         N  0.57260280  0.93526225  0.37581697    -0.58800
Mn86       Mn  0.58500956  0.00861565  0.00234265     1.20200
Mn87       Mn  0.49713969  0.00903747  0.41231645     1.10100
Cl88       Cl  0.49662456  0.00056908  0.00042987    -0.86800
C89         C  0.61430750  0.91824769  0.38977418     0.95500
C90         C  0.60561593  0.11000444  0.39996735     0.95300
N91         N  0.94113042  0.58378156  0.05288450    -0.07000
N92         N  0.91466526  0.61854013  0.06634000    -0.59100
N93         N  0.05024431  0.55727105  0.07964484    -0.06600
N94         N  0.07637600  0.57067351  0.11436165    -0.61200
N95         N  0.04520975  0.59132713  0.04994564    -0.06200
N96         N  0.06724072  0.62861655  0.06529006    -0.59100
N97         N  0.94517395  0.55257149  0.08564779    -0.05900
N98         N  0.92113969  0.56623893  0.12214594    -0.61600
C99         C  0.90228989  0.60753323  0.10953541     0.95200
C100        C  0.08690484  0.61532466  0.10573348     0.95000
N101        N  0.06050730  0.41489308  0.04417880    -0.07100
N102        N  0.08952703  0.38091334  0.05386722    -0.59700
N103        N  0.95304959  0.43834818  0.08048948    -0.05300
N104        N  0.92484945  0.42461237  0.11331057    -0.60900
N105        N  0.95488719  0.40678621  0.04806302    -0.07200
N106        N  0.92716916  0.37174009  0.05823816    -0.59900
N107        N  0.05843183  0.44458815  0.07840689    -0.04900
N108        N  0.08619134  0.43065941  0.11216148    -0.61000
Mn109      Mn  0.00164885  0.49798302  0.08139107     1.18400
C110        C  0.10576955  0.39118764  0.09600887     0.97300
C111        C  0.90790610  0.38328371  0.09904535     0.98000
N112        N  0.03882609  0.59248919  0.43743396    -0.07200
N113        N  0.06226181  0.63008998  0.42667527    -0.63500
N114        N  0.93605102  0.55053791  0.40894414    -0.06000
N115        N  0.90778674  0.56253338  0.37511497    -0.64200
N116        N  0.93437853  0.58165272  0.44198893    -0.06700
N117        N  0.90423709  0.61440157  0.43113210    -0.63800
N118        N  0.04030702  0.56218715  0.40359733    -0.05600
N119        N  0.06516180  0.57929253  0.36921194    -0.64500
Mn120      Mn  0.98997552  0.58710290  0.99528995     1.10700
C121        C  0.07846009  0.62180554  0.38414060     0.98500
C122        C  0.88762136  0.60230232  0.38933764     0.98600
N123        N  0.95209934  0.40651143  0.44012137    -0.06700
N124        N  0.93052133  0.36755251  0.43100480    -0.62100
N125        N  0.05066107  0.44807790  0.40047605    -0.06000
N126        N  0.07282375  0.43607149  0.36263013    -0.58800
N127        N  0.05605098  0.41590125  0.43214736    -0.07300
N128        N  0.08254830  0.38212497  0.41590074    -0.61600
N129        N  0.94704058  0.43651501  0.40646912    -0.06300
N130        N  0.92199335  0.41728461  0.37320752    -0.58800
Mn131      Mn  0.00635165  0.41144617  0.99135216     1.20200
Mn132      Mn  0.99346802  0.49955170  0.40442557     1.10100
Cl133      Cl  0.99808158  0.49913306  0.99307769    -0.86800
C134        C  0.91135456  0.37446389  0.38959176     0.95500
C135        C  0.09326091  0.39504147  0.37236075     0.95300
C136        C  0.27385987  0.25174051  0.20163336     0.44600
H137        H  0.27854624  0.24386606  0.16498800    -0.04400
C138        C  0.26009211  0.26777170  0.28693627     0.44700
H139        H  0.25186661  0.27625212  0.32237236    -0.04400
C140        C  0.31130845  0.28451746  0.22207288    -0.18100
C141        C  0.22624859  0.27636074  0.21034219    -0.17800
C142        C  0.27744753  0.20707836  0.23247325    -0.18200
C143        C  0.30395350  0.29202084  0.26844648    -0.18200
C144        C  0.21904545  0.28427789  0.25657902    -0.17800
C145        C  0.26994304  0.21584114  0.27918080    -0.18100
C146        C  0.74875625  0.25627545  0.20648999     0.44600
H147        H  0.75305031  0.24686281  0.17001680    -0.04400
C148        C  0.74276191  0.27434373  0.29225002     0.44700
H149        H  0.73935661  0.28232253  0.32880872    -0.04400
C150        C  0.72257702  0.30202154  0.21485979    -0.18100
C151        C  0.72100400  0.21808311  0.23471111    -0.17800
C152        C  0.79718675  0.26747530  0.22774057    -0.18200
C153        C  0.71790922  0.31161166  0.26139787    -0.18200
C154        C  0.71896425  0.22821963  0.28101755    -0.17800
C155        C  0.79458941  0.27067447  0.27532014    -0.18100
C156        C  0.26200769  0.71495843  0.20872038     0.44600
H157        H  0.26018687  0.70640917  0.17187473    -0.04400
C158        C  0.26496141  0.73560909  0.29418336     0.44700
H159        H  0.26779260  0.74663709  0.32955152    -0.04400
C160        C  0.29224503  0.68061147  0.23723621    -0.18100
C161        C  0.28396761  0.76347574  0.21701309    -0.17800
C162        C  0.21294548  0.71324355  0.23205074    -0.18200
C163        C  0.29221882  0.69101254  0.28347869    -0.18200
C164        C  0.28613383  0.77421536  0.26330246    -0.17800
C165        C  0.21447284  0.72405888  0.27896725    -0.18100
C166        C  0.72497632  0.74245694  0.20526999     0.44600
H167        H  0.71907284  0.73851376  0.16851790    -0.04400
C168        C  0.73455689  0.75170532  0.29204458     0.44700
H169        H  0.74064565  0.75848121  0.32873094    -0.04400
C170        C  0.68610268  0.71734079  0.23405631    -0.18100
C171        C  0.77124517  0.72038046  0.22078512    -0.17800
C172        C  0.72527847  0.79462054  0.22041476    -0.18200
C173        C  0.68971324  0.72458305  0.28086632    -0.18200
C174        C  0.77555761  0.72330642  0.26817012    -0.17800
C175        C  0.72625568  0.79897713  0.26790376    -0.18100
C176        C  0.14769910  0.65270030  0.21660153    -0.02700
C177        C  0.17201775  0.69364554  0.20424855     0.07000
C178        C  0.16187338  0.71235234  0.16027078    -0.02800
C179        C  0.13460517  0.68764035  0.12768259    -0.02800
C180        C  0.11183266  0.64609746  0.14012770     0.07100
C181        C  0.11476592  0.63249325  0.18676693    -0.03000
Br182      Br  0.07272865  0.58700270  0.21224059    -0.01500
Br183      Br  0.16533649  0.61532682  0.26793985    -0.01600
Br184      Br  0.13087507  0.71075437  0.06575312    -0.01600
Br185      Br  0.18551402  0.77238301  0.14412478    -0.01600
C186        C  0.09603902  0.68478359  0.32531269    -0.02700
C187        C  0.11088265  0.65398121  0.36014350     0.07000
C188        C  0.15607551  0.65882753  0.37737870    -0.02800
C189        C  0.18716756  0.69058164  0.35751332    -0.02800
C190        C  0.17642506  0.71241715  0.31457782     0.07100
C191        C  0.12851333  0.71444333  0.30320007    -0.03000
Br192      Br  0.10683537  0.76133958  0.26143612    -0.01500
Br193      Br  0.03176164  0.68544423  0.30728004    -0.01600
Br194      Br  0.23249316  0.71404560  0.40025948    -0.01600
Br195      Br  0.17547272  0.62201192  0.42955527    -0.01600
C196        C  0.14381200  0.38645343  0.30057991    -0.02700
C197        C  0.11985213  0.36585450  0.33780683     0.07000
C198        C  0.12167711  0.31701247  0.34143208    -0.02800
C199        C  0.15263653  0.29066462  0.31405915    -0.02800
C200        C  0.17904480  0.31144850  0.27867305     0.07100
C201        C  0.17142847  0.35940228  0.27034082    -0.03000
Br202      Br  0.20580654  0.39185177  0.22397874    -0.01500
Br203      Br  0.14406258  0.45296734  0.29304510    -0.01600
Br204      Br  0.15843523  0.22516861  0.32541547    -0.01600
Br205      Br  0.07889371  0.28475460  0.38086471    -0.01600
C206        C  0.11736255  0.32891715  0.15557778    -0.02700
C207        C  0.13614665  0.35905559  0.12262002     0.07000
C208        C  0.18292084  0.35381257  0.11039713    -0.02800
C209        C  0.21242277  0.32352985  0.13527881    -0.02800
C210        C  0.19486638  0.29665951  0.17263723     0.07100
C211        C  0.14593640  0.29598692  0.17797563    -0.03000
Br212      Br  0.11710378  0.24618964  0.21094566    -0.01500
Br213      Br  0.05212554  0.33237685  0.16964348    -0.01600
Br214      Br  0.27600394  0.32210607  0.11614994    -0.01600
Br215      Br  0.20671906  0.39015140  0.05996848    -0.01600
C216        C  0.85381613  0.37273990  0.16582881    -0.02700
C217        C  0.87691002  0.35290502  0.12831082     0.07000
C218        C  0.87344960  0.30429211  0.12306977    -0.02800
C219        C  0.85008086  0.27678336  0.15644879    -0.02800
C220        C  0.83043463  0.29626710  0.19680918     0.07100
C221        C  0.83615226  0.34503096  0.20150210    -0.03000
Br222      Br  0.83348846  0.37649446  0.25839564    -0.01500
Br223      Br  0.84226496  0.43889167  0.16748665    -0.01600
Br224      Br  0.85246016  0.21112811  0.14973187    -0.01600
Br225      Br  0.89842923  0.27431828  0.06937220    -0.01600
C226        C  0.88109866  0.28813436  0.29522016    -0.02700
C227        C  0.83552291  0.27639966  0.30884608     0.07000
C228        C  0.82803366  0.27781481  0.35675195    -0.02800
C229        C  0.85312119  0.30962596  0.38391320    -0.02800
C230        C  0.88855431  0.33638898  0.36360818     0.07100
C231        C  0.90646071  0.32079229  0.32135909    -0.03000
Br232      Br  0.96596795  0.34224149  0.30039887    -0.01500
Br233      Br  0.91335783  0.25107397  0.25105393    -0.01600
Br234      Br  0.83546970  0.31888842  0.44702188    -0.01600
Br235      Br  0.78994403  0.23193992  0.38622094    -0.01600
C236        C  0.82885499  0.61404525  0.32554841    -0.02700
C237        C  0.85898370  0.63319922  0.35869908     0.07000
C238        C  0.86362787  0.68185970  0.36014131    -0.02800
C239        C  0.83775342  0.71039199  0.32996380    -0.02800
C240        C  0.80779563  0.69173645  0.29615965     0.07100
C241        C  0.80538142  0.64255250  0.29340132    -0.03000
Br242      Br  0.77052017  0.61138014  0.24663684    -0.01500
Br243      Br  0.81587038  0.54839352  0.32657093    -0.01600
Br244      Br  0.84583854  0.77554590  0.33467843    -0.01600
Br245      Br  0.90657192  0.71101209  0.40232555    -0.01600
C246        C  0.88601225  0.67015563  0.16921117    -0.02700
C247        C  0.86995032  0.63682751  0.13763668     0.07000
C248        C  0.82254876  0.63597977  0.12747228    -0.02800
C249        C  0.79072952  0.66387241  0.15207999    -0.02800
C250        C  0.80542393  0.69468992  0.18795146     0.07100
C251        C  0.85435253  0.69979032  0.19268439    -0.03000
Br252      Br  0.87884145  0.75272561  0.22405421    -0.01500
Br253      Br  0.95195182  0.67693501  0.17801317    -0.01600
Br254      Br  0.72797665  0.65501108  0.13453593    -0.01600
Br255      Br  0.80157230  0.59571511  0.07830502    -0.01600
C256        C  0.70364100  0.15129650  0.32161004    -0.02700
C257        C  0.69376300  0.19903492  0.31721755     0.07000
C258        C  0.65943366  0.21749463  0.34754106    -0.02800
C259        C  0.63137762  0.18817617  0.37451335    -0.02800
C260        C  0.63704199  0.14024115  0.37273847     0.07100
C261        C  0.67461151  0.12193069  0.34776365    -0.03000
Br262      Br  0.68664953  0.05648140  0.34996069    -0.01500
Br263      Br  0.76132988  0.12740974  0.29882164    -0.01600
Br264      Br  0.58474277  0.21336203  0.41515226    -0.01600
Br265      Br  0.64692195  0.28199839  0.35350613    -0.01600
C266        C  0.61215345  0.15238125  0.18708970    -0.02700
C267        C  0.63190909  0.12121034  0.15536510     0.07000
C268        C  0.68096168  0.11719400  0.15518091    -0.02800
C269        C  0.70935148  0.14627789  0.18292735    -0.02800
C270        C  0.69011426  0.18089417  0.21157839     0.07100
C271        C  0.64055605  0.18196550  0.21432269    -0.03000
Br272      Br  0.60902373  0.22734833  0.25044401    -0.01500
Br273      Br  0.54533049  0.15723075  0.19143591    -0.01600
Br274      Br  0.77487497  0.13585916  0.18315586    -0.01600
Br275      Br  0.71005533  0.06935527  0.11905160    -0.01600
C276        C  0.27546508  0.14528725  0.17048666    -0.02700
C277        C  0.29675424  0.16286941  0.21076048     0.07000
C278        C  0.33950999  0.14207302  0.22425299    -0.02800
C279        C  0.36000501  0.10657160  0.19797327    -0.02800
C280        C  0.34432381  0.09736371  0.15281922     0.07100
C281        C  0.29954750  0.11442683  0.14083691    -0.03000
Br282      Br  0.26949669  0.09579905  0.08467103    -0.01500
Br283      Br  0.21321985  0.16477417  0.15516452    -0.01600
Br284      Br  0.40812601  0.06942251  0.22661575    -0.01600
Br285      Br  0.37767915  0.16617232  0.27222215    -0.01600
C286        C  0.33818783  0.17032624  0.38313608    -0.02700
C287        C  0.34120257  0.12334787  0.37226527     0.07000
C288        C  0.30893485  0.10489442  0.34058542    -0.02800
C289        C  0.27889368  0.13462927  0.31528171    -0.02800
C290        C  0.28242985  0.18328080  0.31963906     0.07100
C291        C  0.30631490  0.19923577  0.35994719    -0.03000
Br292      Br  0.28530725  0.25040003  0.39659082    -0.01500
Br293      Br  0.37744449  0.19493636  0.43124898    -0.01600
Br294      Br  0.22931930  0.10882047  0.27918646    -0.01600
Br295      Br  0.30790542  0.03932385  0.32995191    -0.01600
C296        C  0.70241019  0.87862238  0.19797421    -0.02700
C297        C  0.71710004  0.83377955  0.18548142     0.07000
C298        C  0.71629578  0.82496097  0.13773995    -0.02800
C299        C  0.68400486  0.84845848  0.10939045    -0.02800
C300        C  0.65566420  0.88346466  0.12824454     0.07100
C301        C  0.66832918  0.90139300  0.17143458    -0.03000
Br302      Br  0.64208577  0.95863349  0.19325950    -0.01500
Br303      Br  0.74252273  0.91678956  0.23400537    -0.01600
Br304      Br  0.67696402  0.83033204  0.04617503    -0.01600
Br305      Br  0.76536051  0.78953257  0.10981752    -0.01600
C306        C  0.69387495  0.89072614  0.36065148    -0.02700
C307        C  0.64476711  0.88783645  0.36067124     0.07000
C308        C  0.62388257  0.85796143  0.32899580    -0.02800
C309        C  0.65001263  0.83746515  0.29395563    -0.02800
C310        C  0.69918470  0.83552826  0.29563996     0.07100
C311        C  0.72068111  0.86301882  0.33013370    -0.03000
Br312      Br  0.78671671  0.87014671  0.33105577    -0.01500
Br313      Br  0.72514296  0.93360893  0.40089901    -0.01600
Br314      Br  0.61614477  0.82742287  0.23916858    -0.01600
Br315      Br  0.55931607  0.84121684  0.33492464    -0.01600
C316        C  0.38454306  0.85759942  0.30457863    -0.02700
C317        C  0.36365375  0.87967835  0.34280410     0.07000
C318        C  0.31501311  0.87332841  0.34820551    -0.02800
C319        C  0.28968349  0.84202835  0.31991223    -0.02800
C320        C  0.31187265  0.81536357  0.28547074     0.07100
C321        C  0.35986416  0.82456056  0.27786032    -0.03000
Br322      Br  0.39632941  0.78696813  0.23736521    -0.01500
Br323      Br  0.44784473  0.87121081  0.28762383    -0.01600
Br324      Br  0.22347835  0.83622087  0.32855141    -0.01600
Br325      Br  0.28097118  0.91001149  0.39200922    -0.01600
C326        C  0.36578184  0.80608410  0.12030683    -0.02700
C327        C  0.36136334  0.85408653  0.12475999     0.07000
C328        C  0.32539137  0.87185960  0.15221810    -0.02800
C329        C  0.29690900  0.84192230  0.17832442    -0.02800
C330        C  0.30495856  0.79353028  0.17892594     0.07100
C331        C  0.33717756  0.77587210  0.14594547    -0.03000
Br332      Br  0.34627866  0.71122661  0.13513293    -0.01500
Br333      Br  0.41285721  0.78203456  0.07959048    -0.01600
Br334      Br  0.24385715  0.86733994  0.20942262    -0.01600
Br335      Br  0.31541481  0.93771947  0.15407886    -0.01600
C336        C  0.32362992  0.58770211  0.36194173    -0.02700
C337        C  0.34597442  0.61105479  0.39794778     0.07000
C338        C  0.34703200  0.65942724  0.39825709    -0.02800
C339        C  0.33516671  0.68385403  0.35881774    -0.02800
C340        C  0.31163525  0.66180970  0.32202647     0.07100
C341        C  0.30455005  0.61307161  0.32523520    -0.03000
Br342      Br  0.26972879  0.57781800  0.28160361    -0.01500
Br343      Br  0.31956051  0.52076317  0.36170806    -0.01600
Br344      Br  0.35958850  0.74534753  0.35533765    -0.01600
Br345      Br  0.36308995  0.69332952  0.45355148    -0.01600
C346        C  0.39315440  0.59991710  0.20461680    -0.02700
C347        C  0.37423368  0.57698008  0.16688334     0.07000
C348        C  0.32749604  0.58333871  0.15499282    -0.02800
C349        C  0.30012326  0.61404392  0.18025851    -0.02800
C350        C  0.32005040  0.64224028  0.21519627     0.07100
C351        C  0.36754237  0.63454105  0.22671979    -0.03000
Br352      Br  0.40240957  0.67481044  0.26577187    -0.01500
Br353      Br  0.45579847  0.58504125  0.22384908    -0.01600
Br354      Br  0.23558402  0.61418199  0.16529572    -0.01600
Br355      Br  0.30141195  0.55416718  0.10067794    -0.01600
C356        C  0.57667854  0.68518253  0.34315047    -0.02700
C357        C  0.59503769  0.67170774  0.38517009     0.07000
C358        C  0.64027648  0.68360544  0.39688807    -0.02800
C359        C  0.67117520  0.69784562  0.36281789    -0.02800
C360        C  0.65477511  0.71068159  0.31809335     0.07100
C361        C  0.60524642  0.70717952  0.31055934    -0.03000
Br362      Br  0.57199383  0.72818365  0.25743293    -0.01500
Br363      Br  0.51259112  0.66993345  0.33012370    -0.01600
Br364      Br  0.73483590  0.68484077  0.37797541    -0.01600
Br365      Br  0.66065688  0.67482554  0.45975435    -0.01600
C366        C  0.61667318  0.66544023  0.13733611    -0.02700
C367        C  0.61659612  0.61864437  0.14922509     0.07000
C368        C  0.63015244  0.60420365  0.19292446    -0.02800
C369        C  0.64886258  0.63647308  0.22402693    -0.02800
C370        C  0.65395800  0.68386595  0.21042297     0.07100
C371        C  0.63331698  0.69787292  0.16834330    -0.03000
Br372      Br  0.62566276  0.76100120  0.15090085    -0.01500
Br373      Br  0.59805852  0.68521396  0.07610785    -0.01600
Br374      Br  0.66424980  0.61243346  0.28387665    -0.01600
Br375      Br  0.62242820  0.53992498  0.20934177    -0.01600
C376        C  0.67769507  0.40086524  0.35024523    -0.02700
C377        C  0.63319623  0.41202229  0.33481498     0.07000
C378        C  0.61746390  0.39573674  0.29238746    -0.02800
C379        C  0.64416651  0.36349095  0.26736723    -0.02800
C380        C  0.68956728  0.35044323  0.28310941     0.07100
C381        C  0.70640854  0.37296607  0.32349289    -0.03000
Br382      Br  0.76844471  0.36914561  0.34529234    -0.01500
Br383      Br  0.69806818  0.41945243  0.41138265    -0.01600
Br384      Br  0.61384207  0.33659890  0.21495137    -0.01600
Br385      Br  0.55856356  0.41790252  0.26950308    -0.01600
C386        C  0.68821213  0.33516321  0.09270878    -0.02700
C387        C  0.68626019  0.38303916  0.09483731     0.07000
C388        C  0.70447640  0.40635031  0.13280395    -0.02800
C389        C  0.71679972  0.38131087  0.17242523    -0.02800
C390        C  0.71064907  0.33210030  0.17385498     0.07100
C391        C  0.69504119  0.31007274  0.13280941    -0.03000
Br392      Br  0.66915466  0.24911588  0.13072673    -0.01500
Br393      Br  0.67707907  0.30418208  0.03466224    -0.01600
Br394      Br  0.73633804  0.41904318  0.22296997    -0.01600
Br395      Br  0.71130576  0.47301488  0.13084264    -0.01600
C396        C  0.34141258  0.35856481  0.37345212    -0.02700
C397        C  0.38953120  0.35994953  0.36933768     0.07000
C398        C  0.41156272  0.33686595  0.33307227    -0.02800
C399        C  0.38475739  0.31124040  0.30204332    -0.02800
C400        C  0.33551240  0.31666135  0.30142212     0.07100
C401        C  0.31536464  0.34397773  0.33645464    -0.03000
Br402      Br  0.25520663  0.37084533  0.33368796    -0.01500
Br403      Br  0.30977755  0.37274765  0.43061529    -0.01600
Br404      Br  0.41887759  0.26845066  0.26499659    -0.01600
Br405      Br  0.47821178  0.33990911  0.32500904    -0.01600
C406        C  0.41717274  0.29879309  0.14096259    -0.02700
C407        C  0.42889980  0.34480294  0.14907275     0.07000
C408        C  0.40528233  0.36966335  0.18300681    -0.02800
C409        C  0.36421893  0.35227700  0.20195059    -0.02800
C410        C  0.35088287  0.30560561  0.19447108     0.07100
C411        C  0.37836537  0.27922082  0.16294837    -0.03000
Br412      Br  0.36528652  0.21696544  0.14618614    -0.01500
Br413      Br  0.45396618  0.26316811  0.09817748    -0.01600
Br414      Br  0.32373285  0.39666971  0.23021804    -0.01600
Br415      Br  0.42816862  0.42994974  0.20056731    -0.01600
N416        N  0.61451884  0.45501313  0.52889978    -0.07000
N417        N  0.65455279  0.44923624  0.54987373    -0.59100
N418        N  0.56606590  0.43050190  0.93048734    -0.06600
N419        N  0.57288091  0.40643325  0.89282186    -0.61200
N420        N  0.58911893  0.46960698  0.92882051    -0.06200
N421        N  0.61196926  0.47288876  0.88990666    -0.59100
N422        N  0.58929623  0.41752328  0.53138614    -0.05900
N423        N  0.61142870  0.38527673  0.55423283    -0.61600
C424        C  0.65207022  0.40554798  0.56538691     0.95200
C425        C  0.60134472  0.43327429  0.86759565     0.95000
N426        N  0.42965531  0.43199902  0.95617525    -0.07100
N427        N  0.39711312  0.42203721  0.92643787    -0.59700
N428        N  0.48323766  0.39506714  0.55237205    -0.05300
N429        N  0.48602836  0.36340997  0.58517426    -0.60900
N430        N  0.44569405  0.42016152  0.55799077    -0.05000
N431        N  0.42275555  0.40723644  0.59428152    -0.59900
N432        N  0.46565418  0.40508161  0.95030422    -0.04900
N433        N  0.45835062  0.37554495  0.91708992    -0.61000
Mn434      Mn  0.52660862  0.40998484  0.49156527     1.18400
C435        C  0.41552644  0.38664578  0.90256941     0.97300
C436        C  0.44802203  0.37233397  0.61134371     0.98000
N437        N  0.57156464  0.57362366  0.94988957    -0.07200
N438        N  0.59671876  0.59451501  0.91883541    -0.63500
N439        N  0.55012256  0.57659458  0.56249317    -0.06000
N440        N  0.55200641  0.59579800  0.60294883    -0.64200
N441        N  0.58931881  0.55604342  0.55229770    -0.06700
N442        N  0.61981355  0.56254776  0.58556195    -0.63800
N443        N  0.53537663  0.59872660  0.96077892    -0.05600
N444        N  0.53529670  0.63789690  0.93744601    -0.64500
Mn445      Mn  0.59293092  0.51422566  0.98944978     1.10700
C446        C  0.57365521  0.63422242  0.91112841     0.98500
C447        C  0.59548095  0.58717041  0.61695402     0.98600
N448        N  0.42355733  0.52026930  0.57438307    -0.06700
N449        N  0.39634365  0.51739160  0.61034255    -0.62100
N450        N  0.43205365  0.57318595  0.97381961    -0.06000
N451        N  0.41479065  0.60560005  0.94758682    -0.58800
N452        N  0.40602545  0.53616686  0.97281917    -0.07300
N453        N  0.36948594  0.54301722  0.94641454    -0.61600
N454        N  0.44800218  0.55821800  0.57547794    -0.06300
N455        N  0.43769114  0.58261181  0.61201789    -0.58800
Mn456      Mn  0.42466072  0.47659869  0.51485142     1.20200
Mn457      Mn  0.49131664  0.57825486  0.01811601     1.10100
Cl458      Cl  0.50890987  0.49471280  0.50327146    -0.86800
C459        C  0.40567103  0.55655912  0.63355381     0.95500
C460        C  0.37558192  0.58664484  0.93098077     0.95300
N461        N  0.41305396  0.93463731  0.54862340    -0.07000
N462        N  0.37955612  0.90484909  0.55763382    -0.59100
N463        N  0.43543252  0.03834355  0.59182619    -0.06600
N464        N  0.42033455  0.05992789  0.62878061    -0.61200
N465        N  0.40267053  0.03799335  0.56012443    -0.06200
N466        N  0.36496011  0.05903937  0.57584260    -0.59100
N467        N  0.44446263  0.93431615  0.58176084    -0.05900
N468        N  0.43231081  0.90411038  0.61377436    -0.61600
C469        C  0.39210349  0.88556766  0.59797132     0.95200
C470        C  0.37610650  0.07267136  0.61907319     0.95000
N471        N  0.58078102  0.05554858  0.56309478    -0.07100
N472        N  0.61405236  0.08310846  0.57852713    -0.59700
N473        N  0.55849712  0.94487684  0.58374083    -0.05300
N474        N  0.57575774  0.91713294  0.61572207    -0.60900
N475        N  0.58974553  0.95160002  0.55156732    -0.07200
N476        N  0.62809928  0.92839973  0.56075077    -0.59900
N477        N  0.54939414  0.04890921  0.59526780    -0.04900
N478        N  0.56149533  0.07175110  0.63298895    -0.61000
Mn479      Mn  0.49684475  0.99155738  0.58845260     1.18400
C480        C  0.60185450  0.09350158  0.62221770     0.97300
C481        C  0.61895176  0.90648350  0.60043941     0.98000
N482        N  0.40319821  0.04930358  0.94824648    -0.07200
N483        N  0.36487646  0.07228712  0.93781424    -0.63500
N484        N  0.44442130  0.95245779  0.90542418    -0.06000
N485        N  0.43284797  0.93010520  0.86737224    -0.64200
N486        N  0.41253848  0.94566452  0.93702282    -0.06700
N487        N  0.37950849  0.91826272  0.92064966    -0.63800
N488        N  0.43513525  0.05590047  0.91647678    -0.05600
N489        N  0.41855853  0.08350338  0.88395607    -0.64500
Mn490      Mn  0.40801228  0.99191849  0.49858123     1.10700
C491        C  0.37480083  0.09355102  0.89782343     0.98500
C492        C  0.39225062  0.90835960  0.87689783     0.98600
N493        N  0.58956439  0.96096999  0.94325691    -0.06700
N494        N  0.62524189  0.93450023  0.93193203    -0.62100
N495        N  0.55037860  0.06541098  0.91827456    -0.06000
N496        N  0.56433882  0.09328915  0.88495859    -0.58800
N497        N  0.58163087  0.06494743  0.95154152    -0.07300
N498        N  0.61685904  0.09224333  0.94129759    -0.61600
N499        N  0.55820388  0.96120826  0.91025913    -0.06300
N500        N  0.57260105  0.93525910  0.87581728    -0.58800
Mn501      Mn  0.58501020  0.00861644  0.50234354     1.20200
Mn502      Mn  0.49713912  0.00903661  0.91231554     1.10100
Cl503      Cl  0.49662523  0.00056975  0.50043077    -0.86800
C504        C  0.61430525  0.91824379  0.88977516     0.95500
C505        C  0.60561573  0.11000357  0.89996626     0.95300
N506        N  0.94113028  0.58378143  0.55288348    -0.07000
N507        N  0.91466503  0.61853992  0.56633904    -0.59100
N508        N  0.05024409  0.55727065  0.57964416    -0.06600
N509        N  0.07637590  0.57067284  0.61436096    -0.61200
N510        N  0.04520958  0.59132690  0.54994516    -0.06200
N511        N  0.06724067  0.62861618  0.56528970    -0.59100
N512        N  0.94517367  0.55257118  0.58564661    -0.05900
N513        N  0.92113919  0.56623835  0.62214469    -0.61600
C514        C  0.90228949  0.60753270  0.60953431     0.95200
C515        C  0.08690481  0.61532401  0.60573299     0.95000
N516        N  0.06050693  0.41489276  0.54417797    -0.07100
N517        N  0.08952687  0.38091312  0.55386620    -0.59700
N518        N  0.95304899  0.43834819  0.58048814    -0.05300
N519        N  0.92484868  0.42461243  0.61330910    -0.60900
N520        N  0.95488656  0.40678632  0.54806159    -0.07200
N521        N  0.92716839  0.37174024  0.55823658    -0.59900
N522        N  0.05843150  0.44458779  0.57840609    -0.04900
N523        N  0.08619127  0.43065914  0.61216052    -0.61000
Mn524      Mn  0.00164852  0.49798276  0.58139009     1.18400
C525        C  0.10576962  0.39118747  0.59600777     0.97300
C526        C  0.90790522  0.38328385  0.59904376     0.98000
N527        N  0.03882545  0.59248856  0.93743398    -0.07200
N528        N  0.06226118  0.63008918  0.92667470    -0.63500
N529        N  0.93605009  0.55053698  0.90894544    -0.06000
N530        N  0.90778557  0.56253222  0.87511640    -0.64200
N531        N  0.93437800  0.58165214  0.94198995    -0.06700
N532        N  0.90423665  0.61440105  0.93113300    -0.63800
N533        N  0.04030602  0.56218623  0.90359758    -0.05600
N534        N  0.06516061  0.57929116  0.86921185    -0.64500
Mn535      Mn  0.98997568  0.58710312  0.49528933     1.10700
C536        C  0.07845906  0.62180429  0.88413993     0.98500
C537        C  0.88762051  0.60230141  0.88933881     0.98600
N538        N  0.95209910  0.40651049  0.94012293    -0.06700
N539        N  0.93052124  0.36755142  0.93100655    -0.62100
N540        N  0.05066043  0.44807735  0.90047659    -0.06000
N541        N  0.07282306  0.43607123  0.86263054    -0.58800
N542        N  0.05605076  0.41590073  0.93214787    -0.07300
N543        N  0.08254826  0.38212465  0.91590105    -0.61600
N544        N  0.94703995  0.43651401  0.90647068    -0.06300
N545        N  0.92199268  0.41728341  0.87320925    -0.58800
Mn546      Mn  0.00635147  0.41144648  0.49135107     1.20200
Mn547      Mn  0.99346716  0.49955084  0.90442657     1.10100
Cl548      Cl  0.99808170  0.49913333  0.49307675    -0.86800
C549        C  0.91135421  0.37446267  0.88959358     0.95500
C550        C  0.09326062  0.39504138  0.87236103     0.95300
C551        C  0.27386090  0.25174213  0.70163381     0.44600
H552        H  0.27854765  0.24386783  0.66498853    -0.04400
C553        C  0.26009213  0.26777341  0.78693671     0.44700
H554        H  0.25186601  0.27625354  0.82237235    -0.04400
C555        C  0.31130904  0.28451933  0.72207362    -0.18100
C556        C  0.22624934  0.27636205  0.71034216    -0.17800
C557        C  0.27744863  0.20708005  0.73247386    -0.18200
C558        C  0.30395347  0.29202294  0.76844709    -0.18200
C559        C  0.21904560  0.28427910  0.75657890    -0.17800
C560        C  0.26994381  0.21584292  0.77918134    -0.18100
C561        C  0.74875726  0.25627548  0.70648990     0.44600
H562        H  0.75305140  0.24686291  0.67001670    -0.04400
C563        C  0.74276261  0.27434356  0.79224994     0.44700
H564        H  0.73935731  0.28232249  0.82880862    -0.04400
C565        C  0.72257779  0.30202140  0.71485974    -0.18100
C566        C  0.72100511  0.21808303  0.73471098    -0.17800
C567        C  0.79718770  0.26747546  0.72774054    -0.18200
C568        C  0.71790981  0.31161140  0.76139780    -0.18200
C569        C  0.71896521  0.22821933  0.78101745    -0.17800
C570        C  0.79459015  0.27067456  0.77532015    -0.18100
C571        C  0.26200775  0.71495826  0.70871946     0.44600
H572        H  0.26018677  0.70640891  0.67187384    -0.04400
C573        C  0.26496174  0.73560941  0.79418242     0.44700
H574        H  0.26779288  0.74663790  0.82955060    -0.04400
C575        C  0.29224614  0.68061204  0.73723511    -0.18100
C576        C  0.28396667  0.76347608  0.71701176    -0.17800
C577        C  0.21294577  0.71324239  0.73205022    -0.18200
C578        C  0.29222036  0.69101355  0.78347754    -0.18200
C579        C  0.28613301  0.77421601  0.76330103    -0.17800
C580        C  0.21447325  0.72405764  0.77896672    -0.18100
C581        C  0.72497572  0.74245473  0.70527006     0.44600
H582        H  0.71907230  0.73851129  0.66851790    -0.04400
C583        C  0.73455685  0.75170285  0.79204467     0.44700
H584        H  0.74064600  0.75847854  0.82873103    -0.04400
C585        C  0.68610221  0.71733848  0.73405645    -0.18100
C586        C  0.77124462  0.72037824  0.72078500    -0.17800
C587        C  0.72527784  0.79461838  0.72041523    -0.18200
C588        C  0.68971322  0.72458061  0.78086645    -0.18200
C589        C  0.77555754  0.72330436  0.76816989    -0.17800
C590        C  0.72625502  0.79897466  0.76790430    -0.18100
C591        C  0.14769940  0.65269887  0.71660098    -0.02700
C592        C  0.17201790  0.69364431  0.70424819     0.07000
C593        C  0.16187306  0.71235152  0.66027069    -0.02800
C594        C  0.13460482  0.68763970  0.62768244    -0.02800
C595        C  0.11183265  0.64609657  0.64012731     0.07100
C596        C  0.11476614  0.63249198  0.68676639    -0.03000
Br597      Br  0.07272908  0.58700107  0.71223985    -0.01500
Br598      Br  0.16533697  0.61532480  0.76793880    -0.01600
Br599      Br  0.13087410  0.71075443  0.56575325    -0.01600
Br600      Br  0.18551284  0.77238263  0.64412522    -0.01600
C601        C  0.09603917  0.68478178  0.82531178    -0.02700
C602        C  0.11088223  0.65397919  0.86014259     0.07000
C603        C  0.15607530  0.65882429  0.87737748    -0.02800
C604        C  0.18716815  0.69057767  0.85751203    -0.02800
C605        C  0.17642566  0.71241462  0.81457717     0.07100
C606        C  0.12851385  0.71444144  0.80319958    -0.03000
Br607      Br  0.10683617  0.76133837  0.76143621    -0.01500
Br608      Br  0.03176204  0.68544242  0.80727818    -0.01600
Br609      Br  0.23249769  0.71403650  0.90025666    -0.01600
Br610      Br  0.17547184  0.62200714  0.92955330    -0.01600
C611        C  0.14381274  0.38645430  0.80058086    -0.02700
C612        C  0.11985193  0.36585482  0.83780685     0.07000
C613        C  0.12167594  0.31701271  0.84143082    -0.02800
C614        C  0.15263555  0.29066508  0.81405788    -0.02800
C615        C  0.17904442  0.31144936  0.77867244     0.07100
C616        C  0.17142848  0.35940332  0.77034093    -0.03000
Br617      Br  0.20580640  0.39185308  0.72397892    -0.01500
Br618      Br  0.14406668  0.45296858  0.79304956    -0.01600
Br619      Br  0.15843396  0.22516895  0.82541349    -0.01600
Br620      Br  0.07889108  0.28475470  0.88086173    -0.01600
C621        C  0.11736303  0.32891635  0.65557602    -0.02700
C622        C  0.13614701  0.35905554  0.62261887     0.07000
C623        C  0.18292157  0.35381365  0.61039680    -0.02800
C624        C  0.21242379  0.32353149  0.63527889    -0.02800
C625        C  0.19486735  0.29666057  0.67263686     0.07100
C626        C  0.14593730  0.29598678  0.67797434    -0.03000
Br627      Br  0.11710536  0.24618861  0.71094357    -0.01500
Br628      Br  0.05212557  0.33237399  0.66964012    -0.01600
Br629      Br  0.27600542  0.32210928  0.61615141    -0.01600
Br630      Br  0.20671980  0.39015305  0.55996858    -0.01600
C631        C  0.85381567  0.37273997  0.66582749    -0.02700
C632        C  0.87690934  0.35290509  0.62830939     0.07000
C633        C  0.87344940  0.30429212  0.62306878    -0.02800
C634        C  0.85008158  0.27678335  0.65644846    -0.02800
C635        C  0.83043562  0.29626717  0.69680897     0.07100
C636        C  0.83615293  0.34503112  0.70150142    -0.03000
Br637      Br  0.83349240  0.37649460  0.75839513    -0.01500
Br638      Br  0.84226373  0.43889160  0.66748483    -0.01600
Br639      Br  0.85246239  0.21112808  0.64973239    -0.01600
Br640      Br  0.89842829  0.27431832  0.56937087    -0.01600
C641        C  0.88109937  0.28813360  0.79522134    -0.02700
C642        C  0.83552331  0.27639929  0.80884654     0.07000
C643        C  0.82803345  0.27781402  0.85675236    -0.02800
C644        C  0.85312069  0.30962490  0.88391416    -0.02800
C645        C  0.88855438  0.33638763  0.86360984     0.07100
C646        C  0.90646149  0.32079081  0.82136111    -0.03000
Br647      Br  0.96596989  0.34223869  0.80040276    -0.01500
Br648      Br  0.91335843  0.25107389  0.75105450    -0.01600
Br649      Br  0.83546821  0.31888732  0.94702254    -0.01600
Br650      Br  0.78994372  0.23193871  0.88622058    -0.01600
C651        C  0.82885354  0.61404392  0.82555020    -0.02700
C652        C  0.85898302  0.63319816  0.85869999     0.07000
C653        C  0.86362838  0.68185856  0.86014076    -0.02800
C654        C  0.83775478  0.71039053  0.82996223    -0.02800
C655        C  0.80779594  0.69173468  0.79615921     0.07100
C656        C  0.80538048  0.64255075  0.79340240    -0.03000
Br657      Br  0.77051825  0.61137811  0.74663891    -0.01500
Br658      Br  0.81586670  0.54839269  0.82657545    -0.01600
Br659      Br  0.84584332  0.77554426  0.83467317    -0.01600
Br660      Br  0.90657248  0.71101123  0.90232475    -0.01600
C661        C  0.88601165  0.67015607  0.66920882    -0.02700
C662        C  0.86994984  0.63682665  0.63763566     0.07000
C663        C  0.82254805  0.63597711  0.62747264    -0.02800
C664        C  0.79072867  0.66386899  0.65208095    -0.02800
C665        C  0.80542314  0.69468772  0.68795124     0.07100
C666        C  0.85435164  0.69979016  0.69268232    -0.03000
Br667      Br  0.87883938  0.75272775  0.72404898    -0.01500
Br668      Br  0.95195125  0.67693815  0.67800846    -0.01600
Br669      Br  0.72797563  0.65500537  0.63453928    -0.01600
Br670      Br  0.80157156  0.59571164  0.57830607    -0.01600
C671        C  0.70364104  0.15129569  0.82160904    -0.02700
C672        C  0.69376372  0.19903436  0.81721724     0.07000
C673        C  0.65943460  0.21749402  0.84754106    -0.02800
C674        C  0.63137817  0.18817547  0.87451294    -0.02800
C675        C  0.63704194  0.14024037  0.87273746     0.07100
C676        C  0.67461126  0.12192985  0.84776238    -0.03000
Br677      Br  0.68664878  0.05648041  0.84995896    -0.01500
Br678      Br  0.76132943  0.12740840  0.79882000    -0.01600
Br679      Br  0.58474364  0.21336134  0.91515218    -0.01600
Br680      Br  0.64692381  0.28199792  0.85350714    -0.01600
C681        C  0.61215431  0.15238150  0.68709029    -0.02700
C682        C  0.63190976  0.12121065  0.65536555     0.07000
C683        C  0.68096235  0.11719442  0.65518075    -0.02800
C684        C  0.70935232  0.14627828  0.68292693    -0.02800
C685        C  0.69011526  0.18089440  0.71157822     0.07100
C686        C  0.64055709  0.18196587  0.71432286    -0.03000
Br687      Br  0.60902507  0.22734913  0.75044393    -0.01500
Br688      Br  0.54533139  0.15723079  0.69143721    -0.01600
Br689      Br  0.77487587  0.13585996  0.68315445    -0.01600
Br690      Br  0.71005583  0.06935605  0.61905080    -0.01600
C691        C  0.27546649  0.14528909  0.67048717    -0.02700
C692        C  0.29675538  0.16287099  0.71076124     0.07000
C693        C  0.33951104  0.14207440  0.72425388    -0.02800
C694        C  0.36000631  0.10657324  0.69797396    -0.02800
C695        C  0.34432526  0.09736556  0.65281979     0.07100
C696        C  0.29954909  0.11442897  0.64083730    -0.03000
Br697      Br  0.26949891  0.09580251  0.58467065    -0.01500
Br698      Br  0.21322136  0.16477609  0.65516474    -0.01600
Br699      Br  0.40812797  0.06942466  0.72661615    -0.01600
Br700      Br  0.37767986  0.16617303  0.77222357    -0.01600
C701        C  0.33818898  0.17032687  0.88313637    -0.02700
C702        C  0.34120241  0.12334842  0.87226564     0.07000
C703        C  0.30893399  0.10489570  0.84058611    -0.02800
C704        C  0.27889340  0.13463121  0.81528250    -0.02800
C705        C  0.28243076  0.18328267  0.81963963     0.07100
C706        C  0.30631685  0.19923728  0.85994738    -0.03000
Br707      Br  0.28531342  0.25040427  0.89658946    -0.01500
Br708      Br  0.37744681  0.19493595  0.93124892    -0.01600
Br709      Br  0.22931842  0.10882349  0.77918729    -0.01600
Br710      Br  0.30790283  0.03932514  0.82995284    -0.01600
C711        C  0.70241120  0.87862103  0.69797555    -0.02700
C712        C  0.71709974  0.83377784  0.68548232     0.07000
C713        C  0.71629534  0.82495983  0.63774076    -0.02800
C714        C  0.68400512  0.84845852  0.60939145    -0.02800
C715        C  0.65566543  0.88346533  0.62824579     0.07100
C716        C  0.66833107  0.90139307  0.67143591    -0.03000
Br717      Br  0.64208954  0.95863436  0.69326090    -0.01500
Br718      Br  0.74252358  0.91678595  0.73400935    -0.01600
Br719      Br  0.67696422  0.83033321  0.54617574    -0.01600
Br720      Br  0.76535946  0.78953087  0.60981798    -0.01600
C721        C  0.69387283  0.89072072  0.86065443    -0.02700
C722        C  0.64476494  0.88783202  0.86067276     0.07000
C723        C  0.62388077  0.85795792  0.82899621    -0.02800
C724        C  0.65001132  0.83746241  0.79395585    -0.02800
C725        C  0.69918340  0.83552501  0.79564107     0.07100
C726        C  0.72067925  0.86301397  0.83013643    -0.03000
Br727      Br  0.78671483  0.87014075  0.83106077    -0.01500
Br728      Br  0.72514085  0.93360125  0.90090443    -0.01600
Br729      Br  0.61614429  0.82742250  0.73916776    -0.01600
Br730      Br  0.55931414  0.84121348  0.83492387    -0.01600
C731        C  0.38454209  0.85760075  0.80457620    -0.02700
C732        C  0.36365276  0.87967970  0.84280161     0.07000
C733        C  0.31501202  0.87333054  0.84820251    -0.02800
C734        C  0.28968247  0.84202980  0.81990993    -0.02800
C735        C  0.31187163  0.81536473  0.78546867     0.07100
C736        C  0.35986306  0.82456206  0.77785782    -0.03000
Br737      Br  0.39632846  0.78696979  0.73736275    -0.01500
Br738      Br  0.44784396  0.87121186  0.78762173    -0.01600
Br739      Br  0.22347756  0.83622155  0.82855001    -0.01600
Br740      Br  0.28097006  0.91001645  0.89200382    -0.01600
C741        C  0.36578151  0.80608488  0.62030650    -0.02700
C742        C  0.36136247  0.85408729  0.62475945     0.07000
C743        C  0.32538928  0.87186006  0.65221623    -0.02800
C744        C  0.29690702  0.84192259  0.67832249    -0.02800
C745        C  0.30495719  0.79353064  0.67892440     0.07100
C746        C  0.33717674  0.77587268  0.64594437    -0.03000
Br747      Br  0.34627826  0.71122720  0.63513181    -0.01500
Br748      Br  0.41285822  0.78203566  0.57959152    -0.01600
Br749      Br  0.24385487  0.86733987  0.70942054    -0.01600
Br750      Br  0.31541074  0.93771970  0.65407498    -0.01600
C751        C  0.32363231  0.58770480  0.86194213    -0.02700
C752        C  0.34597847  0.61105792  0.89794696     0.07000
C753        C  0.34703778  0.65943041  0.89825463    -0.02800
C754        C  0.33517126  0.68385639  0.85881511    -0.02800
C755        C  0.31163828  0.66181150  0.82202513     0.07100
C756        C  0.30455246  0.61307368  0.82523520    -0.03000
Br757      Br  0.26973010  0.57781979  0.78160477    -0.01500
Br758      Br  0.31955993  0.52076601  0.86171073    -0.01600
Br759      Br  0.35959142  0.74535029  0.85533357    -0.01600
Br760      Br  0.36309843  0.69333422  0.95354744    -0.01600
C761        C  0.39315564  0.59991760  0.70461552    -0.02700
C762        C  0.37423397  0.57697829  0.66688389     0.07000
C763        C  0.32749563  0.58333505  0.65499509    -0.02800
C764        C  0.30012368  0.61404261  0.68025902    -0.02800
C765        C  0.32005144  0.64224054  0.71519526     0.07100
C766        C  0.36754370  0.63454194  0.72671804    -0.03000
Br767      Br  0.40241136  0.67481269  0.76576827    -0.01500
Br768      Br  0.45580081  0.58504392  0.72384605    -0.01600
Br769      Br  0.23558467  0.61418221  0.66529537    -0.01600
Br770      Br  0.30140886  0.55415622  0.60068527    -0.01600
C771        C  0.57667826  0.68518355  0.84315179    -0.02700
C772        C  0.59503766  0.67170887  0.88517133     0.07000
C773        C  0.64027667  0.68360602  0.89688888    -0.02800
C774        C  0.67117541  0.69784452  0.86281816    -0.02800
C775        C  0.65477515  0.71068013  0.81809363     0.07100
C776        C  0.60524633  0.70717928  0.81056006    -0.03000
Br777      Br  0.57199389  0.72818310  0.75743343    -0.01500
Br778      Br  0.51259018  0.66993622  0.83012617    -0.01600
Br779      Br  0.73483589  0.68483761  0.87797500    -0.01600
Br780      Br  0.66065724  0.67482703  0.95975522    -0.01600
C781        C  0.61667317  0.66543878  0.63733556    -0.02700
C782        C  0.61659401  0.61864313  0.64922509     0.07000
C783        C  0.63014855  0.60420250  0.69292504    -0.02800
C784        C  0.64885974  0.63647155  0.72402737    -0.02800
C785        C  0.65395676  0.68386421  0.71042311     0.07100
C786        C  0.63331661  0.69787134  0.66834306    -0.03000
Br787      Br  0.62566284  0.76099966  0.65090055    -0.01500
Br788      Br  0.59806243  0.68521209  0.57610608    -0.01600
Br789      Br  0.66424676  0.61243162  0.78387701    -0.01600
Br790      Br  0.62242072  0.53992450  0.70934321    -0.01600
C791        C  0.67769670  0.40086547  0.85024504    -0.02700
C792        C  0.63319774  0.41202261  0.83481523     0.07000
C793        C  0.61746503  0.39573707  0.79238781    -0.02800
C794        C  0.64416724  0.36349104  0.76736744    -0.02800
C795        C  0.68956799  0.35044304  0.78310939     0.07100
C796        C  0.70640976  0.37296605  0.82349252    -0.03000
Br797      Br  0.76844645  0.36914614  0.84529048    -0.01500
Br798      Br  0.69807081  0.41945325  0.91138190    -0.01600
Br799      Br  0.61384254  0.33659955  0.71495142    -0.01600
Br800      Br  0.55856506  0.41790375  0.76950344    -0.01600
C801        C  0.68821222  0.33516394  0.59270915    -0.02700
C802        C  0.68625921  0.38303984  0.59483844     0.07000
C803        C  0.70447477  0.40635084  0.63280550    -0.02800
C804        C  0.71679972  0.38131091  0.67242597    -0.02800
C805        C  0.71064970  0.33210027  0.67385513     0.07100
C806        C  0.69504183  0.31007301  0.63280942    -0.03000
Br807      Br  0.66915617  0.24911578  0.63072606    -0.01500
Br808      Br  0.67707971  0.30418338  0.53466221    -0.01600
Br809      Br  0.73634039  0.41904227  0.72297050    -0.01600
Br810      Br  0.71130046  0.47301583  0.63084616    -0.01600
C811        C  0.34141245  0.35856957  0.87345140    -0.02700
C812        C  0.38953105  0.35995433  0.86933655     0.07000
C813        C  0.41156236  0.33687012  0.83307149    -0.02800
C814        C  0.38475700  0.31124322  0.80204381    -0.02800
C815        C  0.33551202  0.31666396  0.80142263     0.07100
C816        C  0.31536430  0.34398117  0.83645453    -0.03000
Br817      Br  0.25520552  0.37084685  0.83368848    -0.01500
Br818      Br  0.30977780  0.37275325  0.93061462    -0.01600
Br819      Br  0.41887710  0.26845150  0.76499937    -0.01600
Br820      Br  0.47821116  0.33991424  0.82500698    -0.01600
C821        C  0.41717565  0.29879358  0.64096596    -0.02700
C822        C  0.42890239  0.34480357  0.64907556     0.07000
C823        C  0.40528435  0.36966432  0.68300897    -0.02800
C824        C  0.36422029  0.35227844  0.70195180    -0.02800
C825        C  0.35088409  0.30560709  0.69447232     0.07100
C826        C  0.37836728  0.27922188  0.66295050    -0.03000
Br827      Br  0.36528785  0.21696693  0.64618729    -0.01500
Br828      Br  0.45397130  0.26316757  0.59818355    -0.01600
Br829      Br  0.32373349  0.39667166  0.73021753    -0.01600
Br830      Br  0.42817084  0.42995055  0.70056956    -0.01600
loop_ 
_geom_bond_atom_site_label_1 
_geom_bond_atom_site_label_2 
_geom_bond_distance 
_geom_bond_site_symmetry_2 
_ccdc_geom_bond_type 
N1            N2   1.315       .  A
N1            N7   1.310       .  A
N1         Mn445   2.155   1_554  S
N2            C9   1.346       .  A
N3            N5   1.315       .  A
N3            N4   1.317       .  A
N3         Mn434   2.200       .  S
N4           C10   1.351       .  A
N5            N6   1.318       .  A
N5          Mn30   2.194       .  S
N6           C10   1.355       .  A
N7            N8   1.311       .  A
N7          Mn19   2.157   1_554  S
N8            C9   1.351       .  A
C9          C387   1.458       .  S
C10         C377   1.464       .  S
N11          N17   1.309       .  A
N11          N12   1.308       .  A
N11        Mn456   2.150       .  S
N12          C20   1.349       .  A
N13          N14   1.327       .  A
N13          N15   1.314       .  A
N13         Mn19   2.217   1_554  S
N14          C21   1.362       .  A
N15          N16   1.306       .  A
N15         Mn41   2.148       .  S
N16          C21   1.340       .  A
N17          N18   1.310       .  A
N17        Mn434   2.132       .  S
N18          C20   1.343       .  A
Mn19        N418   2.200       .  S
Mn19        N432   2.132       .  S
Mn19        Cl43   2.529   1_556  S
C20         C397   1.448       .  S
C21         C407   1.469       .  S
N22          N23   1.311       .  A
N22          N28   1.311       .  A
N22         Mn30   2.159       .  S
N23          C31   1.346       .  A
N24          N26   1.312       .  A
N24          N25   1.306       .  A
N24        Mn457   2.130       .  S
N25          C32   1.340       .  A
N26          N27   1.321       .  A
N26        Mn445   2.201   1_554  S
N27          C32   1.358       .  A
N28          N29   1.323       .  A
N28         Mn42   2.187       .  S
N29          C31   1.353       .  A
Mn30        N416   2.155       .  S
Mn30        N441   2.201       .  S
Mn30       Cl458   2.523       .  S
C31         C357   1.462       .  S
C32         C367   1.445       .  S
N33          N34   1.315       .  A
N33          N39   1.307       .  A
N33         Mn41   2.150       .  S
N34          C44   1.349       .  A
N35          N36   1.308       .  A
N35          N37   1.310       .  A
N35         Mn42   2.144       .  S
N36          C45   1.346       .  A
N37          N38   1.318       .  A
N37        Mn456   2.182       .  S
N38          C45   1.353       .  A
N39          N40   1.314       .  A
N39        Mn457   2.171       .  S
N40          C44   1.350       .  A
Mn41        N426   2.150   1_554  S
Mn41        N452   2.182   1_554  S
Mn41        Cl43   2.510       .  S
Mn42        N439   2.130       .  S
Mn42        N454   2.171       .  S
Mn42       Cl458   2.510       .  S
Cl43       Mn445   2.523   1_554  S
Cl43       Mn457   2.510       .  S
C44         C347   1.457       .  S
C45         C337   1.466       .  S
N46          N47   1.323       .  A
N46          N52   1.322       .  A
N46         Mn75   2.214   1_554  S
N47          C54   1.350       .  A
N48          N50   1.320       .  A
N48          N49   1.321       .  A
N48         Mn64   2.230   1_545  S
N49          C55   1.356       .  A
N50          N51   1.329       .  A
N50         Mn75   2.243   1_544  S
N51          C55   1.359       .  A
N52          N53   1.328       .  A
N52         Mn64   2.253       .  S
N53          C54   1.358       .  A
C54         C327   1.495       .  S
C55         C280   1.525       .  S
N56          N62   1.321       .  A
N56          N57   1.327       .  A
N56         Mn86   2.238       .  S
N57          C65   1.357       .  A
N58          N59   1.326       .  A
N58          N60   1.318       .  A
N58         Mn64   2.236       .  S
N59          C66   1.359       .  A
N60          N61   1.320       .  A
N60         Mn86   2.192   1_565  S
N61          C66   1.347       .  A
N62          N63   1.330       .  A
N62         Mn64   2.259   1_545  S
N63          C65   1.362       .  A
Mn64        Cl88   2.581   1_565  S
C65         C267   1.526       .  S
C66         C300   1.488       .  S
N67          N68   1.324       .  A
N67          N73   1.323       .  A
N67        Mn490   2.221   1_545  S
N68          C76   1.351       .  A
N69          N71   1.319       .  A
N69          N70   1.327       .  A
N69         Mn87   2.246   1_565  S
N70          C77   1.360       .  A
N71          N72   1.329       .  A
N71        Mn490   2.245       .  S
N72          C77   1.360       .  A
N73          N74   1.328       .  A
N73         Mn87   2.247       .  S
N74          C76   1.358       .  A
Mn75        N482   2.221   1_565  S
Mn75        N486   2.245       .  S
Mn75        Cl88   2.568   1_566  S
C76         C287   1.494       .  S
C77         C317   1.535       .  S
N78          N79   1.325       .  A
N78          N84   1.319       .  A
N78        Mn501   2.213   1_565  S
N79          C89   1.354       .  A
N80          N81   1.327       .  A
N80          N82   1.322       .  A
N80         Mn87   2.250       .  S
N81          C90   1.357       .  A
N82          N83   1.323       .  A
N82        Mn501   2.206       .  S
N83          C90   1.349       .  A
N84          N85   1.323       .  A
N84         Mn87   2.240   1_565  S
N85          C89   1.360       .  A
Mn86        N493   2.213   1_544  S
Mn86        N497   2.206   1_554  S
Mn86        Cl88   2.560       .  S
Mn87       Cl503   2.583       .  S
Cl88       Mn502   2.583   1_554  S
C89         C307   1.507       .  S
C90         C260   1.492       .  S
N91          N92   1.323       .  A
N91          N97   1.320       .  A
N91        Mn120   2.199   1_554  S
N92          C99   1.349       .  A
N93          N95   1.320       .  A
N93          N94   1.319       .  A
N93        Mn109   2.219       .  S
N94         C100   1.353       .  A
N95          N96   1.331       .  A
N95        Mn120   2.253   1_454  S
N96         C100   1.362       .  A
N97          N98   1.333       .  A
N97        Mn109   2.272   1_655  S
N98          C99   1.363       .  A
C99         C247   1.505       .  S
C100        C180   1.522       .  S
N101        N107   1.320       .  A
N101        N102   1.321       .  A
N101       Mn131   2.193   1_554  S
N102        C110   1.348       .  A
N103        N104   1.320       .  A
N103        N105   1.317       .  A
N103       Mn109   2.226   1_655  S
N104        C111   1.359       .  A
N105        N106   1.327       .  A
N105       Mn131   2.231   1_654  S
N106        C111   1.357       .  A
N107        N108   1.329       .  A
N107       Mn109   2.252       .  S
N108        C110   1.359       .  A
Mn109      Cl133   2.579   1_454  S
C110        C207   1.493       .  S
C111        C217   1.520       .  S
N112        N113   1.321       .  A
N112        N118   1.322       .  A
N112       Mn535   2.208   1_455  S
N113        C121   1.349       .  A
N114        N116   1.321       .  A
N114        N115   1.324       .  A
N114       Mn132   2.221       .  S
N115        C122   1.355       .  A
N116        N117   1.323       .  A
N116       Mn535   2.235       .  S
N117        C122   1.355       .  A
N118        N119   1.331       .  A
N118       Mn132   2.264   1_455  S
N119        C121   1.362       .  A
Mn120       N527   2.208   1_655  S
Mn120       N531   2.235       .  S
Mn120      Cl133   2.559       .  S
C121        C187   1.497       .  S
C122        C237   1.508       .  S
N123        N124   1.316       .  A
N123        N129   1.318       .  A
N123       Mn546   2.165   1_655  S
N124        C134   1.342       .  A
N125        N126   1.324       .  A
N125        N127   1.321       .  A
N125       Mn132   2.225   1_455  S
N126        C135   1.355       .  A
N127        N128   1.329       .  A
N127       Mn546   2.252       .  S
N128        C135   1.361       .  A
N129        N130   1.331       .  A
N129       Mn132   2.267       .  S
N130        C134   1.365       .  A
Mn131       N538   2.165   1_455  S
Mn131       N542   2.252       .  S
Mn131      Cl133   2.551   1_455  S
Mn132      Cl548   2.590       .  S
Cl133      Mn547   2.590       .  S
C134        C230   1.491       .  S
C135        C197   1.524       .  S
C136        H137   1.102       .  S
C136        C142   1.579       .  S
C136        C141   1.568       .  S
C136        C140   1.556       .  S
C138        H139   1.090       .  S
C138        C144   1.550       .  S
C138        C143   1.547       .  S
C138        C145   1.547       .  S
C140        C143   1.387       .  D
C140        C410   1.527       .  S
C141        C144   1.385       .  D
C141        C210   1.538       .  S
C142        C145   1.404       .  D
C142        C277   1.534       .  S
C143        C400   1.503       .  S
C144        C200   1.539       .  S
C145        C290   1.552       .  S
C146        H147   1.106       .  S
C146        C152   1.561       .  S
C146        C151   1.597       .  S
C146        C150   1.544       .  S
C148        H149   1.096       .  S
C148        C154   1.538       .  S
C148        C153   1.575       .  S
C148        C155   1.579       .  S
C150        C153   1.393       .  D
C150        C390   1.518       .  S
C151        C154   1.384       .  D
C151        C270   1.552       .  S
C152        C155   1.394       .  D
C152        C220   1.561       .  S
C153        C380   1.528       .  S
C154        C257   1.538       .  S
C155        C227   1.540       .  S
C156        H157   1.104       .  S
C156        C162   1.573       .  S
C156        C161   1.561       .  S
C156        C160   1.560       .  S
C158        H159   1.083       .  S
C158        C164   1.562       .  S
C158        C163   1.544       .  S
C158        C165   1.557       .  S
C160        C163   1.383       .  D
C160        C350   1.514       .  S
C161        C164   1.387       .  D
C161        C330   1.538       .  S
C162        C165   1.405       .  D
C162        C177   1.539       .  S
C163        C340   1.512       .  S
C164        C320   1.546       .  S
C165        C190   1.551       .  S
C166        H167   1.091       .  S
C166        C172   1.574       .  S
C166        C171   1.545       .  S
C166        C170   1.581       .  S
C168        H169   1.102       .  S
C168        C174   1.601       .  S
C168        C173   1.548       .  S
C168        C175   1.557       .  S
C170        C173   1.385       .  D
C170        C370   1.508       .  S
C171        C174   1.390       .  D
C171        C250   1.564       .  S
C172        C175   1.392       .  D
C172        C297   1.542       .  S
C173        C360   1.538       .  S
C174        C240   1.536       .  S
C175        C310   1.545       .  S
C176        C177   1.426       .  A
C176        C181   1.414       .  A
C176       Br183   1.914       .  S
C177        C178   1.422       .  A
C178        C179   1.425       .  A
C178       Br185   1.928       .  S
C179        C180   1.420       .  A
C179       Br184   1.929       .  S
C180        C181   1.419       .  A
C181       Br182   1.941       .  S
C186        C187   1.417       .  A
C186        C191   1.428       .  A
C186       Br193   1.925       .  S
C187        C188   1.402       .  A
C188        C189   1.411       .  A
C188       Br195   1.939       .  S
C189        C190   1.436       .  A
C189       Br194   1.928       .  S
C190        C191   1.421       .  A
C191       Br192   1.926       .  S
C196        C197   1.421       .  A
C196        C201   1.425       .  A
C196       Br203   1.939       .  S
C197        C198   1.420       .  A
C198        C199   1.421       .  A
C198       Br205   1.932       .  S
C199        C200   1.419       .  A
C199       Br204   1.933       .  S
C200        C201   1.427       .  A
C201       Br202   1.926       .  S
C206        C207   1.409       .  A
C206        C211   1.417       .  A
C206       Br213   1.929       .  S
C207        C208   1.404       .  A
C208        C209   1.419       .  A
C208       Br215   1.937       .  S
C209        C210   1.433       .  A
C209       Br214   1.919       .  S
C210        C211   1.420       .  A
C211       Br212   1.925       .  S
C216        C217   1.406       .  A
C216        C221   1.411       .  A
C216       Br223   1.945       .  S
C217        C218   1.420       .  A
C218        C219   1.429       .  A
C218       Br225   1.932       .  S
C219        C220   1.425       .  A
C219       Br224   1.913       .  S
C220        C221   1.429       .  A
C221       Br222   1.896       .  S
C226        C227   1.416       .  A
C226        C231   1.418       .  A
C226       Br233   1.920       .  S
C227        C228   1.416       .  A
C228        C229   1.414       .  A
C228       Br235   1.929       .  S
C229        C230   1.415       .  A
C229       Br234   1.931       .  S
C230        C231   1.412       .  A
C231       Br232   1.928       .  S
C236        C237   1.412       .  A
C236        C241   1.419       .  A
C236       Br243   1.939       .  S
C237        C238   1.417       .  A
C238        C239   1.417       .  A
C238       Br245   1.938       .  S
C239        C240   1.417       .  A
C239       Br244   1.907       .  S
C240        C241   1.429       .  A
C241       Br242   1.919       .  S
C246        C247   1.412       .  A
C246        C251   1.429       .  A
C246       Br253   1.928       .  S
C247        C248   1.398       .  A
C248        C249   1.419       .  A
C248       Br255   1.945       .  S
C249        C250   1.439       .  A
C249       Br254   1.897       .  S
C250        C251   1.425       .  A
C251       Br252   1.920       .  S
C256        C257   1.417       .  A
C256        C261   1.419       .  A
C256       Br263   1.922       .  S
C257        C258   1.433       .  A
C258        C259   1.415       .  A
C258       Br265   1.910       .  S
C259        C260   1.399       .  A
C259       Br264   1.938       .  S
C260        C261   1.411       .  A
C261       Br262   1.928       .  S
C266        C267   1.414       .  A
C266        C271   1.427       .  A
C266       Br273   1.936       .  S
C267        C268   1.419       .  A
C268        C269   1.426       .  A
C268       Br275   1.934       .  S
C269        C270   1.419       .  A
C269       Br274   1.913       .  S
C270        C271   1.432       .  A
C271       Br272   1.916       .  S
C276        C277   1.419       .  A
C276        C281   1.426       .  A
C276       Br283   1.931       .  S
C277        C278   1.425       .  A
C278        C279   1.413       .  A
C278       Br285   1.911       .  S
C279        C280   1.417       .  A
C279       Br284   1.941       .  S
C280        C281   1.424       .  A
C281       Br282   1.929       .  S
C286        C287   1.400       .  A
C286        C291   1.413       .  A
C286       Br293   1.937       .  S
C287        C288   1.415       .  A
C288        C289   1.425       .  A
C288       Br295   1.925       .  S
C289        C290   1.419       .  A
C289       Br294   1.925       .  S
C290        C291   1.438       .  A
C291       Br292   1.926       .  S
C296        C297   1.414       .  A
C296        C301   1.411       .  A
C296       Br303   1.914       .  S
C297        C298   1.416       .  A
C298        C299   1.416       .  A
C298       Br305   1.929       .  S
C299        C300   1.414       .  A
C299       Br304   1.928       .  S
C300        C301   1.410       .  A
C301       Br302   1.931       .  S
C306        C307   1.419       .  A
C306        C311   1.428       .  A
C306       Br313   1.932       .  S
C307        C308   1.402       .  A
C308        C309   1.404       .  A
C308       Br315   1.933       .  S
C309        C310   1.420       .  A
C309       Br314   1.893       .  S
C310        C311   1.425       .  A
C311       Br312   1.916       .  S
C316        C317   1.421       .  A
C316        C321   1.424       .  A
C316       Br323   1.934       .  S
C317        C318   1.424       .  A
C318        C319   1.427       .  A
C318       Br325   1.932       .  S
C319        C320   1.421       .  A
C319       Br324   1.934       .  S
C320        C321   1.428       .  A
C321       Br322   1.922       .  S
C326        C327   1.402       .  A
C326        C331   1.418       .  A
C326       Br333   1.936       .  S
C327        C328   1.410       .  A
C328        C329   1.419       .  A
C328       Br335   1.930       .  S
C329        C330   1.420       .  A
C329       Br334   1.927       .  S
C330        C331   1.434       .  A
C331       Br332   1.917       .  S
C336        C337   1.405       .  A
C336        C341   1.408       .  A
C336       Br343   1.943       .  S
C337        C338   1.402       .  A
C338        C339   1.392       .  A
C338       Br345   1.944       .  S
C339        C340   1.420       .  A
C339       Br344   1.919       .  S
C340        C341   1.430       .  A
C341       Br342   1.915       .  S
C346        C347   1.396       .  A
C346        C351   1.403       .  A
C346       Br353   1.937       .  S
C347        C348   1.402       .  A
C348        C349   1.400       .  A
C348       Br355   1.946       .  S
C349        C350   1.426       .  A
C349       Br354   1.910       .  S
C350        C351   1.426       .  A
C351       Br352   1.915       .  S
C356        C357   1.389       .  A
C356        C361   1.413       .  A
C356       Br363   1.937       .  S
C357        C358   1.391       .  A
C358        C359   1.400       .  A
C358       Br365   1.941       .  S
C359        C360   1.435       .  A
C359       Br364   1.923       .  S
C360        C361   1.448       .  A
C361       Br362   1.918       .  S
C366        C367   1.399       .  A
C366        C371   1.389       .  A
C366       Br373   1.949       .  S
C367        C368   1.396       .  A
C368        C369   1.410       .  A
C368       Br375   1.936       .  S
C369        C370   1.437       .  A
C369       Br374   1.930       .  S
C370        C371   1.421       .  A
C371       Br372   1.910       .  S
C376        C377   1.396       .  A
C376        C381   1.397       .  A
C376       Br383   1.952       .  S
C377        C378   1.399       .  A
C378        C379   1.414       .  A
C378       Br385   1.931       .  S
C379        C380   1.436       .  A
C379       Br384   1.925       .  S
C380        C381   1.431       .  A
C381       Br382   1.899       .  S
C386        C387   1.389       .  A
C386        C391   1.390       .  A
C386       Br393   1.943       .  S
C387        C388   1.399       .  A
C388        C389   1.409       .  A
C388       Br395   1.942       .  S
C389        C390   1.437       .  A
C389       Br394   1.920       .  S
C390        C391   1.429       .  A
C391       Br392   1.919       .  S
C396        C397   1.394       .  A
C396        C401   1.380       .  A
C396       Br403   1.948       .  S
C397        C398   1.405       .  A
C398        C399   1.402       .  A
C398       Br405   1.939       .  S
C399        C400   1.428       .  A
C399       Br404   1.918       .  S
C400        C401   1.418       .  A
C401       Br402   1.901       .  S
C406        C407   1.396       .  A
C406        C411   1.411       .  A
C406       Br413   1.938       .  S
C407        C408   1.402       .  A
C408        C409   1.403       .  A
C408       Br415   1.936       .  S
C409        C410   1.423       .  A
C409       Br414   1.923       .  S
C410        C411   1.436       .  A
C411       Br412   1.907       .  S
N416        N417   1.315       .  A
N416        N422   1.310       .  A
N417        C424   1.346       .  A
N418        N420   1.315       .  A
N418        N419   1.317       .  A
N419        C425   1.351       .  A
N420        N421   1.318       .  A
N420       Mn445   2.194       .  S
N421        C425   1.355       .  A
N422        N423   1.311       .  A
N422       Mn434   2.157       .  S
N423        C424   1.351       .  A
C424        C802   1.458       .  S
C425        C792   1.464       .  S
N426        N432   1.309       .  A
N426        N427   1.308       .  A
N427        C435   1.349       .  A
N428        N429   1.327       .  A
N428        N430   1.314       .  A
N428       Mn434   2.217       .  S
N429        C436   1.362       .  A
N430        N431   1.306       .  A
N430       Mn456   2.148       .  S
N431        C436   1.340       .  A
N432        N433   1.310       .  A
N433        C435   1.343       .  A
Mn434      Cl458   2.529       .  S
C435        C812   1.448       .  S
C436        C822   1.469       .  S
N437        N438   1.311       .  A
N437        N443   1.311       .  A
N437       Mn445   2.159       .  S
N438        C446   1.346       .  A
N439        N441   1.312       .  A
N439        N440   1.306       .  A
N440        C447   1.340       .  A
N441        N442   1.321       .  A
N442        C447   1.358       .  A
N443        N444   1.323       .  A
N443       Mn457   2.187   1_556  S
N444        C446   1.353       .  A
C446        C772   1.462       .  S
C447        C782   1.445       .  S
N448        N449   1.315       .  A
N448        N454   1.307       .  A
N448       Mn456   2.150       .  S
N449        C459   1.349       .  A
N450        N451   1.308       .  A
N450        N452   1.310       .  A
N450       Mn457   2.144   1_556  S
N451        C460   1.346       .  A
N452        N453   1.318       .  A
N453        C460   1.353       .  A
N454        N455   1.314       .  A
N455        C459   1.350       .  A
Mn456      Cl458   2.510       .  S
C459        C762   1.457       .  S
C460        C752   1.466       .  S
N461        N462   1.323       .  A
N461        N467   1.322       .  A
N461       Mn490   2.214       .  S
N462        C469   1.350       .  A
N463        N465   1.320       .  A
N463        N464   1.321       .  A
N463       Mn479   2.230   1_545  S
N464        C470   1.356       .  A
N465        N466   1.329       .  A
N465       Mn490   2.243   1_545  S
N466        C470   1.359       .  A
N467        N468   1.328       .  A
N467       Mn479   2.253       .  S
N468        C469   1.358       .  A
C469        C742   1.495       .  S
C470        C695   1.525       .  S
N471        N477   1.321       .  A
N471        N472   1.327       .  A
N471       Mn501   2.238       .  S
N472        C480   1.357       .  A
N473        N474   1.326       .  A
N473        N475   1.318       .  A
N473       Mn479   2.236       .  S
N474        C481   1.359       .  A
N475        N476   1.320       .  A
N475       Mn501   2.192   1_565  S
N476        C481   1.347       .  A
N477        N478   1.330       .  A
N477       Mn479   2.259   1_545  S
N478        C480   1.362       .  A
Mn479      Cl503   2.581   1_565  S
C480        C682   1.526       .  S
C481        C715   1.488       .  S
N482        N483   1.324       .  A
N482        N488   1.323       .  A
N483        C491   1.351       .  A
N484        N486   1.319       .  A
N484        N485   1.327       .  A
N484       Mn502   2.246   1_565  S
N485        C492   1.360       .  A
N486        N487   1.329       .  A
N487        C492   1.360       .  A
N488        N489   1.328       .  A
N488       Mn502   2.247       .  S
N489        C491   1.358       .  A
Mn490      Cl503   2.568   1_565  S
C491        C702   1.494       .  S
C492        C732   1.535       .  S
N493        N494   1.325       .  A
N493        N499   1.319       .  A
N494        C504   1.354       .  A
N495        N496   1.327       .  A
N495        N497   1.322       .  A
N495       Mn502   2.250       .  S
N496        C505   1.357       .  A
N497        N498   1.323       .  A
N498        C505   1.349       .  A
N499        N500   1.323       .  A
N499       Mn502   2.240   1_565  S
N500        C504   1.360       .  A
Mn501      Cl503   2.560       .  S
C504        C722   1.507       .  S
C505        C675   1.492       .  S
N506        N507   1.323       .  A
N506        N512   1.320       .  A
N506       Mn535   2.199       .  S
N507        C514   1.349       .  A
N508        N510   1.320       .  A
N508        N509   1.319       .  A
N508       Mn524   2.219       .  S
N509        C515   1.353       .  A
N510        N511   1.331       .  A
N510       Mn535   2.253   1_455  S
N511        C515   1.362       .  A
N512        N513   1.333       .  A
N512       Mn524   2.272   1_655  S
N513        C514   1.363       .  A
C514        C662   1.505       .  S
C515        C595   1.522       .  S
N516        N522   1.320       .  A
N516        N517   1.321       .  A
N516       Mn546   2.193       .  S
N517        C525   1.348       .  A
N518        N519   1.320       .  A
N518        N520   1.317       .  A
N518       Mn524   2.226   1_655  S
N519        C526   1.359       .  A
N520        N521   1.327       .  A
N520       Mn546   2.231   1_655  S
N521        C526   1.357       .  A
N522        N523   1.329       .  A
N522       Mn524   2.252       .  S
N523        C525   1.359       .  A
Mn524      Cl548   2.579   1_455  S
C525        C622   1.493       .  S
C526        C632   1.520       .  S
N527        N528   1.321       .  A
N527        N533   1.322       .  A
N528        C536   1.349       .  A
N529        N531   1.321       .  A
N529        N530   1.324       .  A
N529       Mn547   2.221       .  S
N530        C537   1.355       .  A
N531        N532   1.323       .  A
N532        C537   1.355       .  A
N533        N534   1.331       .  A
N533       Mn547   2.264   1_455  S
N534        C536   1.362       .  A
Mn535      Cl548   2.559       .  S
C536        C602   1.497       .  S
C537        C652   1.508       .  S
N538        N539   1.316       .  A
N538        N544   1.318       .  A
N539        C549   1.342       .  A
N540        N541   1.324       .  A
N540        N542   1.321       .  A
N540       Mn547   2.225   1_455  S
N541        C550   1.355       .  A
N542        N543   1.329       .  A
N543        C550   1.361       .  A
N544        N545   1.331       .  A
N544       Mn547   2.267       .  S
N545        C549   1.365       .  A
Mn546      Cl548   2.551   1_455  S
C549        C645   1.491       .  S
C550        C612   1.524       .  S
C551        H552   1.102       .  S
C551        C557   1.579       .  S
C551        C556   1.568       .  S
C551        C555   1.556       .  S
C553        H554   1.090       .  S
C553        C559   1.551       .  S
C553        C558   1.547       .  S
C553        C560   1.547       .  S
C555        C558   1.387       .  D
C555        C825   1.527       .  S
C556        C559   1.385       .  D
C556        C625   1.538       .  S
C557        C560   1.404       .  D
C557        C692   1.534       .  S
C558        C815   1.503       .  S
C559        C615   1.539       .  S
C560        C705   1.552       .  S
C561        H562   1.106       .  S
C561        C567   1.561       .  S
C561        C566   1.597       .  S
C561        C565   1.544       .  S
C563        H564   1.096       .  S
C563        C569   1.538       .  S
C563        C568   1.575       .  S
C563        C570   1.579       .  S
C565        C568   1.393       .  D
C565        C805   1.518       .  S
C566        C569   1.384       .  D
C566        C685   1.552       .  S
C567        C570   1.394       .  D
C567        C635   1.561       .  S
C568        C795   1.528       .  S
C569        C672   1.538       .  S
C570        C642   1.540       .  S
C571        H572   1.104       .  S
C571        C577   1.573       .  S
C571        C576   1.561       .  S
C571        C575   1.560       .  S
C573        H574   1.083       .  S
C573        C579   1.562       .  S
C573        C578   1.544       .  S
C573        C580   1.557       .  S
C575        C578   1.383       .  D
C575        C765   1.514       .  S
C576        C579   1.387       .  D
C576        C745   1.538       .  S
C577        C580   1.405       .  D
C577        C592   1.539       .  S
C578        C755   1.512       .  S
C579        C735   1.546       .  S
C580        C605   1.551       .  S
C581        H582   1.091       .  S
C581        C587   1.574       .  S
C581        C586   1.545       .  S
C581        C585   1.581       .  S
C583        H584   1.102       .  S
C583        C589   1.601       .  S
C583        C588   1.548       .  S
C583        C590   1.557       .  S
C585        C588   1.385       .  D
C585        C785   1.508       .  S
C586        C589   1.390       .  D
C586        C665   1.564       .  S
C587        C590   1.392       .  D
C587        C712   1.542       .  S
C588        C775   1.538       .  S
C589        C655   1.536       .  S
C590        C725   1.545       .  S
C591        C592   1.426       .  A
C591        C596   1.414       .  A
C591       Br598   1.914       .  S
C592        C593   1.422       .  A
C593        C594   1.425       .  A
C593       Br600   1.928       .  S
C594        C595   1.420       .  A
C594       Br599   1.929       .  S
C595        C596   1.419       .  A
C596       Br597   1.941       .  S
C601        C602   1.417       .  A
C601        C606   1.428       .  A
C601       Br608   1.925       .  S
C602        C603   1.402       .  A
C603        C604   1.411       .  A
C603       Br610   1.939       .  S
C604        C605   1.436       .  A
C604       Br609   1.928       .  S
C605        C606   1.421       .  A
C606       Br607   1.926       .  S
C611        C612   1.421       .  A
C611        C616   1.425       .  A
C611       Br618   1.939       .  S
C612        C613   1.420       .  A
C613        C614   1.421       .  A
C613       Br620   1.932       .  S
C614        C615   1.419       .  A
C614       Br619   1.933       .  S
C615        C616   1.427       .  A
C616       Br617   1.926       .  S
C621        C622   1.409       .  A
C621        C626   1.417       .  A
C621       Br628   1.929       .  S
C622        C623   1.404       .  A
C623        C624   1.419       .  A
C623       Br630   1.937       .  S
C624        C625   1.433       .  A
C624       Br629   1.919       .  S
C625        C626   1.420       .  A
C626       Br627   1.925       .  S
C631        C632   1.406       .  A
C631        C636   1.411       .  A
C631       Br638   1.945       .  S
C632        C633   1.420       .  A
C633        C634   1.429       .  A
C633       Br640   1.932       .  S
C634        C635   1.425       .  A
C634       Br639   1.913       .  S
C635        C636   1.429       .  A
C636       Br637   1.896       .  S
C641        C642   1.416       .  A
C641        C646   1.418       .  A
C641       Br648   1.920       .  S
C642        C643   1.416       .  A
C643        C644   1.414       .  A
C643       Br650   1.929       .  S
C644        C645   1.415       .  A
C644       Br649   1.931       .  S
C645        C646   1.412       .  A
C646       Br647   1.928       .  S
C651        C652   1.412       .  A
C651        C656   1.419       .  A
C651       Br658   1.939       .  S
C652        C653   1.417       .  A
C653        C654   1.417       .  A
C653       Br660   1.938       .  S
C654        C655   1.417       .  A
C654       Br659   1.907       .  S
C655        C656   1.429       .  A
C656       Br657   1.919       .  S
C661        C662   1.412       .  A
C661        C666   1.429       .  A
C661       Br668   1.928       .  S
C662        C663   1.398       .  A
C663        C664   1.419       .  A
C663       Br670   1.945       .  S
C664        C665   1.439       .  A
C664       Br669   1.897       .  S
C665        C666   1.425       .  A
C666       Br667   1.920       .  S
C671        C672   1.417       .  A
C671        C676   1.419       .  A
C671       Br678   1.922       .  S
C672        C673   1.433       .  A
C673        C674   1.415       .  A
C673       Br680   1.910       .  S
C674        C675   1.399       .  A
C674       Br679   1.938       .  S
C675        C676   1.411       .  A
C676       Br677   1.928       .  S
C681        C682   1.414       .  A
C681        C686   1.427       .  A
C681       Br688   1.936       .  S
C682        C683   1.419       .  A
C683        C684   1.426       .  A
C683       Br690   1.934       .  S
C684        C685   1.419       .  A
C684       Br689   1.913       .  S
C685        C686   1.432       .  A
C686       Br687   1.916       .  S
C691        C692   1.419       .  A
C691        C696   1.426       .  A
C691       Br698   1.931       .  S
C692        C693   1.425       .  A
C693        C694   1.413       .  A
C693       Br700   1.911       .  S
C694        C695   1.417       .  A
C694       Br699   1.941       .  S
C695        C696   1.424       .  A
C696       Br697   1.929       .  S
C701        C702   1.400       .  A
C701        C706   1.413       .  A
C701       Br708   1.937       .  S
C702        C703   1.415       .  A
C703        C704   1.425       .  A
C703       Br710   1.925       .  S
C704        C705   1.419       .  A
C704       Br709   1.925       .  S
C705        C706   1.438       .  A
C706       Br707   1.926       .  S
C711        C712   1.414       .  A
C711        C716   1.411       .  A
C711       Br718   1.914       .  S
C712        C713   1.416       .  A
C713        C714   1.416       .  A
C713       Br720   1.929       .  S
C714        C715   1.414       .  A
C714       Br719   1.928       .  S
C715        C716   1.410       .  A
C716       Br717   1.931       .  S
C721        C722   1.419       .  A
C721        C726   1.428       .  A
C721       Br728   1.932       .  S
C722        C723   1.402       .  A
C723        C724   1.404       .  A
C723       Br730   1.933       .  S
C724        C725   1.420       .  A
C724       Br729   1.893       .  S
C725        C726   1.425       .  A
C726       Br727   1.916       .  S
C731        C732   1.421       .  A
C731        C736   1.424       .  A
C731       Br738   1.934       .  S
C732        C733   1.424       .  A
C733        C734   1.427       .  A
C733       Br740   1.932       .  S
C734        C735   1.421       .  A
C734       Br739   1.934       .  S
C735        C736   1.428       .  A
C736       Br737   1.922       .  S
C741        C742   1.402       .  A
C741        C746   1.418       .  A
C741       Br748   1.936       .  S
C742        C743   1.410       .  A
C743        C744   1.419       .  A
C743       Br750   1.930       .  S
C744        C745   1.420       .  A
C744       Br749   1.927       .  S
C745        C746   1.434       .  A
C746       Br747   1.917       .  S
C751        C752   1.405       .  A
C751        C756   1.408       .  A
C751       Br758   1.943       .  S
C752        C753   1.402       .  A
C753        C754   1.392       .  A
C753       Br760   1.944       .  S
C754        C755   1.420       .  A
C754       Br759   1.919       .  S
C755        C756   1.430       .  A
C756       Br757   1.915       .  S
C761        C762   1.396       .  A
C761        C766   1.403       .  A
C761       Br768   1.937       .  S
C762        C763   1.402       .  A
C763        C764   1.400       .  A
C763       Br770   1.946       .  S
C764        C765   1.426       .  A
C764       Br769   1.910       .  S
C765        C766   1.426       .  A
C766       Br767   1.915       .  S
C771        C772   1.389       .  A
C771        C776   1.413       .  A
C771       Br778   1.937       .  S
C772        C773   1.391       .  A
C773        C774   1.400       .  A
C773       Br780   1.941       .  S
C774        C775   1.435       .  A
C774       Br779   1.923       .  S
C775        C776   1.448       .  A
C776       Br777   1.918       .  S
C781        C782   1.399       .  A
C781        C786   1.389       .  A
C781       Br788   1.949       .  S
C782        C783   1.396       .  A
C783        C784   1.410       .  A
C783       Br790   1.936       .  S
C784        C785   1.437       .  A
C784       Br789   1.930       .  S
C785        C786   1.421       .  A
C786       Br787   1.910       .  S
C791        C792   1.396       .  A
C791        C796   1.397       .  A
C791       Br798   1.952       .  S
C792        C793   1.399       .  A
C793        C794   1.414       .  A
C793       Br800   1.931       .  S
C794        C795   1.436       .  A
C794       Br799   1.925       .  S
C795        C796   1.431       .  A
C796       Br797   1.899       .  S
C801        C802   1.389       .  A
C801        C806   1.390       .  A
C801       Br808   1.943       .  S
C802        C803   1.399       .  A
C803        C804   1.409       .  A
C803       Br810   1.942       .  S
C804        C805   1.437       .  A
C804       Br809   1.920       .  S
C805        C806   1.429       .  A
C806       Br807   1.919       .  S
C811        C812   1.394       .  A
C811        C816   1.380       .  A
C811       Br818   1.948       .  S
C812        C813   1.405       .  A
C813        C814   1.402       .  A
C813       Br820   1.939       .  S
C814        C815   1.428       .  A
C814       Br819   1.918       .  S
C815        C816   1.418       .  A
C816       Br817   1.901       .  S
C821        C822   1.396       .  A
C821        C826   1.411       .  A
C821       Br828   1.938       .  S
C822        C823   1.402       .  A
C823        C824   1.403       .  A
C823       Br830   1.936       .  S
C824        C825   1.423       .  A
C824       Br829   1.923       .  S
C825        C826   1.436       .  A
C826       Br827   1.907       .  S
