geometry optimzed in LAMMPS
_audit_creation_date              2020-11-30 
_audit_creation_method            'lammps2cif' 
_symmetry_space_group_name_H-M    'P1' 
_symmetry_Int_Tables_number       1 
_symmetry_cell_setting            triclinic 
loop_ 
_symmetry_equiv_pos_as_xyz 
  x,y,z 
_cell_length_a                    36.69532658 
_cell_length_b                    24.055026453903285 
_cell_length_c                    40.78195539680026 
_cell_angle_alpha                 89.9987159267283 
_cell_angle_beta                  90.0010272564829 
_cell_angle_gamma                 89.98643769528745 
loop_ 
_atom_site_label 
_atom_site_type_symbol 
_atom_site_fract_x 
_atom_site_fract_y 
_atom_site_fract_z 
_atom_site_charge 
In1        In  0.66213684  0.24039222  0.25064335     1.36900
C2          C  0.62740909  0.25018573  0.19334762     0.79100
O3          O  0.66308093  0.33362886  0.25625810    -0.59300
O4          O  0.71266071  0.29232491  0.24513643    -0.50200
C5          C  0.62859233  0.23195241  0.30845800     0.71800
O6          O  0.61296352  0.22135535  0.28170925    -0.45100
C7          C  0.69639887  0.14241440  0.25004514     0.76500
O8          O  0.61237720  0.26063224  0.22040789    -0.57000
O9          O  0.71245926  0.18740263  0.25651993    -0.47000
O10         O  0.66013604  0.23484028  0.19537171    -0.53400
C11         C  0.69674011  0.33775468  0.25072586     0.86700
O12         O  0.66142456  0.24636947  0.30589673    -0.55300
O13         O  0.66294414  0.14745287  0.24376105    -0.58600
In14       In  0.75125108  0.48783903  0.24965965     1.36900
C15         C  0.78658166  0.49404620  0.19294698     0.79100
O16         O  0.74962457  0.39480340  0.24511777    -0.59300
O17         O  0.70024427  0.43680432  0.25596505    -0.50200
C18         C  0.78597684  0.48007649  0.30661939     0.71800
O19         O  0.79988370  0.99868650  0.28001520    -0.45100
C20         C  0.71510888  0.08842384  0.24983420     0.76500
O21         O  0.80140953  0.50560123  0.21989581    -0.57000
O22         O  0.69888863  0.04338688  0.24388841    -0.47000
O23         O  0.74857831  0.99887627  0.19423647    -0.53400
C24         C  0.71596896  0.39111213  0.25066471     0.86700
O25         O  0.75323808  0.49529097  0.30454541    -0.55300
O26         O  0.74866582  0.08335015  0.25556497    -0.58600
In27       In  0.24803806  0.24709452  0.25018182     1.36900
C28         C  0.28158357  0.24057017  0.30789254     0.79100
O29         O  0.24780899  0.34027478  0.25584719    -0.59300
O30         O  0.19760679  0.29998670  0.24598738    -0.50200
C31         C  0.28245655  0.25440198  0.19275195     0.71800
O32         O  0.29827055  0.26157868  0.21978816    -0.45100
C33         C  0.21528303  0.14814551  0.24924576     0.76500
O34         O  0.29800281  0.23478990  0.28103483    -0.57000
O35         O  0.19819052  0.19296353  0.25356942    -0.47000
O36         O  0.24783601  0.24914925  0.30554189    -0.53400
C37         C  0.21406104  0.34511806  0.25105244     0.86700
O38         O  0.24890526  0.24401383  0.19479547    -0.55300
O39         O  0.24913350  0.15372488  0.24534173    -0.58600
In40       In  0.16194377  0.49715898  0.25011473     1.36900
C41         C  0.12730969  0.49159361  0.30732367     0.79100
O42         O  0.16184568  0.40395702  0.24552773    -0.59300
O43         O  0.21192248  0.44412693  0.25626959    -0.50200
C44         C  0.12914595  0.50015011  0.19222396     0.71800
O45         O  0.11227681  0.50767389  0.21870121    -0.45100
C46         C  0.19714918  0.09384977  0.24891953     0.76500
O47         O  0.11081324  0.48934966  0.28028465    -0.57000
O48         O  0.21380691  0.04914272  0.24308854    -0.47000
O49         O  0.16137301  0.49661979  0.30523941    -0.53400
C50         C  0.19547305  0.39903518  0.25103506     0.86700
O51         O  0.16280687  0.49158814  0.19508399    -0.55300
O52         O  0.16361805  0.08824182  0.25458168    -0.58600
N53         N  0.95784128  0.50432484  0.05043148    -0.35100
N54         N  0.01297338  0.47846033  0.50114127    -0.55600
N55         N  0.95669852  0.47785646  0.45078552    -0.35100
N56         N  0.89945752  0.47347774  0.50034236    -0.55600
C57         C  0.98768598  0.49440185  0.06898088     0.28500
C58         C  0.92836878  0.49217432  0.06900211     0.28500
C59         C  0.98685483  0.46973539  0.43223075     0.28500
C60         C  0.92737355  0.46626306  0.43180974     0.28500
C61         C  0.03552344  0.51317800  0.02688608     0.37100
C62         C  0.03438851  0.48774024  0.47474590     0.37100
C63         C  0.88020091  0.50654720  0.02676528     0.37100
C64         C  0.87815940  0.47896116  0.47351668     0.37100
C65         C  0.97701612  0.47640445  0.09987137    -0.20400
C66         C  0.93960248  0.47497238  0.09987776    -0.20400
C67         C  0.97650290  0.45298715  0.40103412    -0.20400
C68         C  0.93908423  0.45083521  0.40076399    -0.20400
C69         C  0.07091712  0.52546738  0.01743208    -0.21400
C70         C  0.06942007  0.50112462  0.48478684    -0.21400
C71         C  0.84465432  0.51683107  0.01698650    -0.21400
C72         C  0.84233488  0.48855457  0.48280809    -0.21400
C73         C  0.02415559  0.50404635  0.05946366    -0.16800
C74         C  0.89167414  0.49962104  0.05954345    -0.16800
C75         C  0.89034084  0.47281327  0.44086773    -0.16800
C76         C  0.02328416  0.48057314  0.44183903    -0.16800
H77         H  0.99435010  0.46581778  0.12042265     0.16200
H78         H  0.92262997  0.46305436  0.12041703     0.16200
H79         H  0.99405693  0.44397166  0.38038365     0.16200
H80         H  0.92239230  0.43986901  0.37986474     0.16200
H81         H  0.09436830  0.53164688  0.03311519     0.14400
H82         H  0.09277875  0.50996546  0.46943790     0.14400
H83         H  0.82109120  0.52315552  0.03251152     0.14400
H84         H  0.81890271  0.49392644  0.46699205     0.14400
H85         H  0.95747394  0.52442795  0.02798686     0.27700
H86         H  0.95602298  0.49687278  0.47359784     0.27700
N87         N  0.45575752  0.23047484  0.44985842    -0.35100
N88         N  0.51187446  0.25796387  0.99993650    -0.55600
N89         N  0.45579449  0.25669887  0.05033511    -0.35100
N90         N  0.39918054  0.26009831  0.00050545    -0.55600
C91         C  0.48558453  0.21919174  0.43148178     0.28500
C92         C  0.42618797  0.22192803  0.43063754     0.28500
C93         C  0.48558565  0.26928920  0.06845273     0.28500
C94         C  0.42620868  0.26939737  0.06871060     0.28500
C95         C  0.53338677  0.23031264  0.47458510     0.37100
C96         C  0.53351520  0.25165124  0.02651189     0.38300
C97         C  0.37753216  0.23567403  0.47253963     0.37100
C98         C  0.37803865  0.25161197  0.02718142     0.37100
C99         C  0.47479904  0.20405428  0.40010870    -0.20400
C100        C  0.43738612  0.20585425  0.39957052    -0.20400
C101        C  0.47476592  0.28984480  0.09870593    -0.20400
C102        C  0.43732661  0.28994498  0.09885857    -0.20400
C103        C  0.56878951  0.24039341  0.48482880    -0.21400
C104        C  0.56893864  0.24034667  0.01679108    -0.21400
C105        C  0.34206747  0.24735947  0.48201075    -0.21400
C106        C  0.34281257  0.23851378  0.01767872    -0.21400
C107        C  0.52227380  0.22534235  0.44153008    -0.16800
C108        C  0.38948066  0.23088149  0.43978201    -0.16800
C109        C  0.38955547  0.25962327  0.05984008    -0.16800
C110        C  0.52219635  0.25977718  0.05925473    -0.16800
H111        H  0.49208960  0.19312787  0.37959666     0.16200
H112        H  0.42037591  0.19651767  0.37860032     0.16200
H113        H  0.49206417  0.30322505  0.11869653     0.16200
H114        H  0.42023010  0.30337462  0.11898106     0.16200
H115        H  0.59251747  0.24740099  0.46961857     0.14400
H116        H  0.59252848  0.23436968  0.03232483     0.14400
H117        H  0.31899439  0.25625748  0.46632923     0.14400
H118        H  0.31964604  0.23033134  0.03337738     0.14400
H119        H  0.45571979  0.24918374  0.47274718     0.27700
H120        H  0.45563736  0.23453633  0.02847469     0.27700
C121        C  0.05068007  0.48323184  0.41613463    -0.17000
C122        C  0.07101666  0.48514243  0.39286747     0.07100
C123        C  0.09214510  0.48708841  0.36387057     0.08900
C124        C  0.10861892  0.48891032  0.33826814    -0.17800
C125        C  0.05155173  0.50306319  0.08488251    -0.17000
C126        C  0.07240568  0.50216762  0.10760316     0.07100
C127        C  0.09431273  0.50131914  0.13586203     0.08900
C128        C  0.11112463  0.50084285  0.16115080    -0.17800
C129        C  0.30032693  0.23824666  0.33876676    -0.17000
C130        C  0.31819819  0.23679624  0.36356559     0.07100
C131        C  0.34124354  0.23512420  0.39128057     0.08900
C132        C  0.36244384  0.23335943  0.41386066    -0.17800
C133        C  0.30159297  0.25702418  0.16200088    -0.17000
C134        C  0.31926305  0.25819629  0.13702906     0.07100
C135        C  0.34170509  0.25884286  0.10881372     0.08900
C136        C  0.36246556  0.25925602  0.08582848    -0.17800
C137        C  0.80495490  0.47694501  0.33733711    -0.17000
C138        C  0.82175522  0.47517360  0.36272471     0.07100
C139        C  0.84313543  0.47374409  0.39150767     0.08900
C140        C  0.86343713  0.47293477  0.41477389    -0.17800
C141        C  0.86448748  0.49909605  0.08526293    -0.17000
C142        C  0.84429213  0.49871549  0.10853807     0.07100
C143        C  0.82296158  0.49787597  0.13726026     0.08900
C144        C  0.80591972  0.49652999  0.16247137    -0.17800
C145        C  0.54995720  0.22575119  0.41605613    -0.17000
C146        C  0.57078371  0.22634671  0.39313064     0.07100
C147        C  0.59287150  0.22733886  0.36471057     0.08900
C148        C  0.61002686  0.22882703  0.33946453    -0.17800
C149        C  0.54943856  0.25960226  0.08514800    -0.17000
C150        C  0.56980648  0.25887328  0.10843488     0.07100
C151        C  0.59140864  0.25722524  0.13720279     0.08900
C152        C  0.60842027  0.25470022  0.16253828    -0.17800
In153      In  0.66254899  0.23880914  0.75053073     1.36900
C154        C  0.62785555  0.23269183  0.69327003     0.79100
O155        O  0.66272777  0.33186617  0.74404644    -0.59300
O156        O  0.71214704  0.29209499  0.75751722    -0.50200
C157        C  0.62860417  0.24689305  0.80802341     0.71800
O158        O  0.61209440  0.25031231  0.78104719    -0.45100
C159        C  0.69703154  0.14111755  0.75022098     0.76500
O160        O  0.61238772  0.22350262  0.72026918    -0.57000
O161        O  0.71252134  0.18604162  0.74272807    -0.47000
O162        O  0.66117422  0.24473545  0.69527767    -0.53400
C163        C  0.69605791  0.33694904  0.75083411     0.86700
O164        O  0.66244712  0.23920248  0.80582960    -0.55300
O165        O  0.66392782  0.14591184  0.75780201    -0.58600
In166      In  0.74994859  0.48756974  0.75063696     1.36900
C167        C  0.78220784  0.48098123  0.69224872     0.79100
O168        O  0.74850273  0.39484678  0.75643002    -0.59300
O169        O  0.69894866  0.43600955  0.74511152    -0.50200
C170        C  0.78607859  0.49173160  0.80723003     0.71800
O171        O  0.80078934  0.98565177  0.78045880    -0.45100
C172        C  0.71603486  0.08756016  0.75006729     0.76500
O173        O  0.79876038  0.47192190  0.71872586    -0.57000
O174        O  0.70021256  0.04229753  0.75628454    -0.47000
O175        O  0.75060184  0.98916004  0.69377061    -0.53400
C176        C  0.71488682  0.39063016  0.75081182     0.86700
O177        O  0.75234973  0.48251144  0.80575842    -0.55300
O178        O  0.74948196  0.08319859  0.74360285    -0.58600
In179      In  0.25056141  0.24715887  0.74970789     1.36900
C180        C  0.28460959  0.25022522  0.80719489     0.79100
O181        O  0.25030521  0.34012910  0.74290599    -0.59300
O182        O  0.20142362  0.30106397  0.75825186    -0.50200
C183        C  0.28371277  0.24444406  0.69195672     0.71800
O184        O  0.30094641  0.24747616  0.71859110    -0.45100
C185        C  0.21762676  0.14826052  0.74854006     0.76500
O186        O  0.30144708  0.25044532  0.78030264    -0.57000
O187        O  0.20120504  0.19305900  0.74239217    -0.47000
O188        O  0.25044437  0.24780546  0.80488353    -0.53400
C189        C  0.21736443  0.34566389  0.75085039     0.86700
O190        O  0.24954407  0.24334496  0.69463932    -0.55300
O191        O  0.25100056  0.15376231  0.75504056    -0.58600
In192      In  0.16449630  0.49704942  0.75044519     1.36900
C193        C  0.13028844  0.50393020  0.80789840     0.79100
O194        O  0.16554763  0.40454402  0.75792745    -0.59300
O195        O  0.21477966  0.44440691  0.74416911    -0.50200
C196        C  0.13011043  0.48805582  0.69306502     0.71800
O197        O  0.11377627  0.48631007  0.72017912    -0.45100
C198        C  0.19912306  0.09419682  0.74857853     0.76500
O199        O  0.11381594  0.50696538  0.78089907    -0.57000
O200        O  0.21525592  0.04922044  0.75490156    -0.47000
O201        O  0.16424166  0.49757427  0.80576215    -0.53400
C202        C  0.19884539  0.39956115  0.75110040     0.86700
O203        O  0.16410710  0.49451096  0.69502432    -0.55300
O204        O  0.16561297  0.08919895  0.74267430    -0.58600
N205        N  0.95569034  0.47949516  0.55081370    -0.35100
N206        N  0.01416037  0.50677078  0.00020531    -0.55600
N207        N  0.95803724  0.50606678  0.95005904    -0.35100
N208        N  0.90176252  0.49945100  0.00023275    -0.55600
C209        C  0.98539156  0.47056226  0.56989552     0.28500
C210        C  0.92580959  0.46986774  0.56951541     0.28500
C211        C  0.98808851  0.49808099  0.93137538     0.28500
C212        C  0.92874592  0.49288269  0.93142157     0.28500
C213        C  0.03399848  0.48641248  0.52792858     0.37100
C214        C  0.03565505  0.51550038  0.97382257     0.37100
C215        C  0.87758249  0.48063347  0.52664738     0.37100
C216        C  0.88021266  0.50561867  0.97361259     0.37100
C217        C  0.97414260  0.45579686  0.60118300    -0.20400
C218        C  0.93669444  0.45551049  0.60096606    -0.20400
C219        C  0.97772155  0.48043068  0.90036299    -0.20400
C220        C  0.94035028  0.47705721  0.90040730    -0.20400
C221        C  0.06920093  0.50011334  0.51851379    -0.21400
C222        C  0.07098623  0.52702659  0.98377385    -0.21400
C223        C  0.84197053  0.48963136  0.51650606    -0.21400
C224        C  0.84464776  0.51612226  0.98327467    -0.21400
C225        C  0.02229019  0.47856422  0.56062314    -0.16800
C226        C  0.88898729  0.47614725  0.55962357    -0.16800
C227        C  0.89180056  0.49813712  0.94088204    -0.16800
C228        C  0.02447325  0.50868165  0.94097575    -0.16800
H229        H  0.99113723  0.44672823  0.62219999     0.16200
H230        H  0.91944793  0.44601479  0.62174933     0.16200
H231        H  0.99523878  0.47110594  0.87973049     0.16200
H232        H  0.92363227  0.46481139  0.87977284     0.16200
H233        H  0.09233214  0.50822722  0.53427615     0.14400
H234        H  0.09451143  0.53454649  0.96839447     0.14400
H235        H  0.81819441  0.49596949  0.53177099     0.14400
H236        H  0.82109110  0.52194356  0.96767920     0.14400
H237        H  0.95571419  0.49703378  0.52763372     0.27700
H238        H  0.95734473  0.52543915  0.97272382     0.27700
N239        N  0.45529893  0.25453548  0.95000088    -0.35100
N240        N  0.51147498  0.22275375  0.50086840    -0.55600
N241        N  0.45419315  0.22462316  0.55023478    -0.35100
N242        N  0.39841979  0.22573856  0.49918895    -0.55600
C243        C  0.48498669  0.26399266  0.93107791     0.28500
C244        C  0.42557102  0.26583191  0.93148775     0.28500
C245        C  0.48353756  0.21659915  0.56978347     0.28500
C246        C  0.42405775  0.21670728  0.56877127     0.28500
C247        C  0.53324968  0.24986331  0.97336985     0.37100
C248        C  0.53259899  0.22909633  0.52779310     0.38300
C249        C  0.37767609  0.25172172  0.97406671     0.37100
C250        C  0.37659052  0.23210867  0.52560399     0.37100
C251        C  0.47394772  0.28061447  0.90004846    -0.20400
C252        C  0.43651617  0.28188658  0.90032476    -0.20400
C253        C  0.47185568  0.20385408  0.60127010    -0.20400
C254        C  0.43441623  0.20375997  0.60061397    -0.20400
C255        C  0.56877474  0.23920130  0.98310298    -0.21400
C256        C  0.56829603  0.23961354  0.51852437    -0.21400
C257        C  0.34255708  0.23872371  0.98397861    -0.21400
C258        C  0.34145500  0.24502223  0.51564337    -0.21400
C259        C  0.52169466  0.25578028  0.94052690    -0.16800
C260        C  0.38888064  0.25862899  0.94121485    -0.16800
C261        C  0.38758768  0.22496041  0.55852780    -0.16800
C262        C  0.52047378  0.22360616  0.56057567    -0.16800
H263        H  0.49107115  0.29076241  0.87928553     0.16200
H264        H  0.41932513  0.29305415  0.87978550     0.16200
H265        H  0.48853462  0.19612518  0.62267996     0.16200
H266        H  0.41685042  0.19604330  0.62144489     0.16200
H267        H  0.59222317  0.23210410  0.96755506     0.14400
H268        H  0.59157851  0.24598910  0.53437576     0.14400
H269        H  0.31917175  0.23053163  0.96854603     0.14400
H270        H  0.31783351  0.25201542  0.53099373     0.14400
H271        H  0.45523836  0.23566677  0.97283866     0.27700
H272        H  0.45468559  0.24079082  0.52676619     0.27700
C273        C  0.05195817  0.51008677  0.91543975    -0.17000
C274        C  0.07273234  0.51020087  0.89253140     0.07100
C275        C  0.09458131  0.50898155  0.86404801     0.08900
C276        C  0.11158258  0.50705398  0.83877196    -0.17800
C277        C  0.04962957  0.47828396  0.58648189    -0.17000
C278        C  0.07068075  0.47870372  0.60928873     0.07100
C279        C  0.09337917  0.48058463  0.63736763     0.08900
C280        C  0.11109456  0.48346769  0.66229228    -0.17800
C281        C  0.30308994  0.25277647  0.83818340    -0.17000
C282        C  0.31968520  0.25504993  0.86366554     0.07100
C283        C  0.34098709  0.25722826  0.89247033     0.08900
C284        C  0.36141528  0.25831662  0.91563051    -0.17800
C285        C  0.30182329  0.24152158  0.66087398    -0.17000
C286        C  0.31826931  0.23756281  0.63543051     0.07100
C287        C  0.33951699  0.23210891  0.60682358     0.08900
C288        C  0.36002329  0.22799390  0.58388962    -0.17800
C289        C  0.80577965  0.49260405  0.83770629    -0.17000
C290        C  0.82287986  0.49280658  0.86299328     0.07100
C291        C  0.84423432  0.49355040  0.89185653     0.08900
C292        C  0.86449183  0.49519782  0.91516437    -0.17800
C293        C  0.86131103  0.47637066  0.58510674    -0.17000
C294        C  0.84007443  0.47660698  0.60772185     0.07100
C295        C  0.81749634  0.47723241  0.63581539     0.08900
C296        C  0.80023910  0.47846854  0.66099646    -0.17800
C297        C  0.54909797  0.25532281  0.91484436    -0.17000
C298        C  0.57023189  0.25477584  0.89217357     0.07100
C299        C  0.59271805  0.25335959  0.86405716     0.08900
C300        C  0.61000304  0.25098849  0.83893222    -0.17800
C301        C  0.54744680  0.22501717  0.58666801    -0.17000
C302        C  0.56823656  0.22646657  0.60961453     0.07100
C303        C  0.59082090  0.22831295  0.63770810     0.08900
C304        C  0.60861595  0.23012190  0.66258613    -0.17800
In305      In  0.66447300  0.73801879  0.24970659     1.36900
C306        C  0.62986048  0.73807434  0.19223655     0.79100
O307        O  0.66501818  0.83080832  0.25734260    -0.59300
O308        O  0.71381226  0.79232862  0.24138896    -0.50200
C309        C  0.63007480  0.73717311  0.30720975     0.71800
O310        O  0.61390918  0.74622580  0.28050976    -0.45100
C311        C  0.69831797  0.63961848  0.24995744     0.76500
O312        O  0.61361393  0.73122435  0.21911407    -0.57000
O313        O  0.71417683  0.68437266  0.25728194    -0.47000
O314        O  0.66378164  0.74486564  0.19452147    -0.53400
C315        C  0.69791251  0.83673163  0.24936172     0.86700
O316        O  0.66385544  0.72893198  0.30474714    -0.55300
O317        O  0.66506508  0.64487510  0.24298444    -0.58600
In318      In  0.74909534  0.99006036  0.24942743     1.36900
C319        C  0.78235037  0.99089782  0.19133873     0.79100
O320        O  0.74923711  0.89704061  0.24207168    -0.59300
O321        O  0.69990589  0.93544133  0.25683431    -0.50200
C322        C  0.78407372  0.98884466  0.30677998     0.71800
O323        O  0.80098089  0.46833512  0.27974524    -0.45100
C324        C  0.71712473  0.58577222  0.24948954     0.76500
O325        O  0.79900408  0.98249362  0.21785662    -0.57000
O326        O  0.70147054  0.54107735  0.24167069    -0.47000
O327        O  0.75366942  0.47977372  0.19474681    -0.53400
C328        C  0.71614017  0.89103454  0.24940751     0.86700
O329        O  0.75037242  0.97991142  0.30447110    -0.55300
O330        O  0.75025687  0.58057708  0.25693948    -0.58600
In331      In  0.25063070  0.74521336  0.25056590     1.36900
C332        C  0.28521947  0.74043402  0.30819878     0.79100
O333        O  0.25023527  0.83854669  0.25357838    -0.59300
O334        O  0.19985302  0.79730311  0.24568966    -0.50200
C335        C  0.28554182  0.75006040  0.19310845     0.71800
O336        O  0.30135914  0.75733837  0.22015639    -0.45100
C337        C  0.21523880  0.64837360  0.25068506     0.76500
O338        O  0.29963423  0.72483555  0.28178005    -0.57000
O339        O  0.19970635  0.69375594  0.25708491    -0.47000
O340        O  0.25305648  0.75789496  0.30546017    -0.53400
C341        C  0.21630254  0.84284137  0.24947152     0.86700
O342        O  0.25178900  0.74139255  0.19518619    -0.55300
O343        O  0.24876353  0.65235371  0.24470076    -0.58600
In344      In  0.16397414  0.99520242  0.24879324     1.36900
C345        C  0.12972465  0.99198347  0.30647725     0.79100
O346        O  0.16390688  0.90164727  0.24386607    -0.59300
O347        O  0.21393788  0.94181685  0.25433574    -0.50200
C348        C  0.13031239  0.99961819  0.19090767     0.71800
O349        O  0.11343903  0.99918439  0.21775201    -0.45100
C350        C  0.19602664  0.59503267  0.25017691     0.76500
O351        O  0.11315488  0.98987526  0.27949292    -0.57000
O352        O  0.21198544  0.54990975  0.24407003    -0.47000
O353        O  0.16387185  0.99561365  0.30423481    -0.53400
C354        C  0.19755328  0.89669520  0.24920096     0.86700
O355        O  0.16449475  0.99800549  0.19337552    -0.55300
O356        O  0.16244292  0.59049962  0.25589859    -0.58600
N357        N  0.95666820  0.99891124  0.04928440    -0.35100
N358        N  0.01385417  0.98991764  0.49959091    -0.55600
N359        N  0.95740346  0.99021444  0.44926178    -0.35100
N360        N  0.90098360  0.98639711  0.49913772    -0.55600
C361        C  0.98666231  0.98779961  0.06752731     0.28500
C362        C  0.92716596  0.98699509  0.06799679     0.28500
C363        C  0.98731352  0.97889698  0.43097891     0.28500
C364        C  0.92789160  0.97754006  0.43073871     0.28500
C365        C  0.03434409  0.00638164  0.02545196     0.37100
C366        C  0.03530962  0.99689585  0.47296606     0.37100
C367        C  0.87856206  0.00510350  0.02673220     0.37100
C368        C  0.87941020  0.99260016  0.47252035     0.37100
C369        C  0.97604957  0.96870998  0.09816140    -0.20400
C370        C  0.93858924  0.96818025  0.09845131    -0.20400
C371        C  0.97663644  0.95915455  0.40049439    -0.20400
C372        C  0.93920246  0.95836641  0.40033159    -0.20400
C373        C  0.06946326  0.01935762  0.01544795    -0.21400
C374        C  0.07075353  0.00828983  0.48263870    -0.21400
C375        C  0.84329919  0.01860522  0.01739171    -0.21400
C376        C  0.84372129  0.00210999  0.48215431    -0.21400
C377        C  0.02321013  0.99817474  0.05821550    -0.16800
C378        C  0.89033450  0.99645667  0.05925658    -0.16800
C379        C  0.89106886  0.98562683  0.43979953    -0.16800
C380        C  0.02388311  0.98898142  0.44021745    -0.16800
H381        H  0.99348930  0.95709733  0.11843598     0.16200
H382        H  0.92168530  0.95612807  0.11899828     0.16200
H383        H  0.99401973  0.94685114  0.38032030     0.16200
H384        H  0.92223966  0.94532169  0.38003086     0.16200
H385        H  0.09296171  0.02719042  0.03081786     0.14400
H386        H  0.09425520  0.01470547  0.46705558     0.14400
H387        H  0.82021618  0.02680196  0.03320250     0.14400
H388        H  0.82011715  0.00751775  0.46655767     0.14400
H389        H  0.95632728  0.01999960  0.02708761     0.27700
H390        H  0.95711383  0.01155395  0.47134445     0.27700
N391        N  0.45825125  0.73389357  0.45011452    -0.35100
N392        N  0.51472372  0.75417243  0.99916463    -0.55600
N393        N  0.45820573  0.74809702  0.04954685    -0.35100
N394        N  0.40181503  0.75523589  0.00003307    -0.55600
C395        C  0.48815780  0.74360539  0.43160812     0.28500
C396        C  0.42881096  0.74702026  0.43172939     0.28500
C397        C  0.48816009  0.75762225  0.06805497     0.28500
C398        C  0.42871822  0.75908453  0.06846541     0.28500
C399        C  0.53567586  0.72310466  0.47368187     0.37100
C400        C  0.53592861  0.74286778  0.02542790     0.38300
C401        C  0.38073171  0.73108931  0.47386666     0.37100
C402        C  0.38058236  0.74474311  0.02641602     0.37100
C403        C  0.47756763  0.76288560  0.40095424    -0.20400
C404        C  0.44011847  0.76502312  0.40103310    -0.20400
C405        C  0.47757827  0.77459192  0.09915469    -0.20400
C406        C  0.44011880  0.77555011  0.09940489    -0.20400
C407        C  0.57094015  0.71038647  0.48324230    -0.21400
C408        C  0.57106402  0.73045795  0.01527137    -0.21400
C409        C  0.34528135  0.71966346  0.48342761    -0.21400
C410        C  0.34561331  0.73112485  0.01641466    -0.21400
C411        C  0.52451895  0.73225749  0.44091703    -0.16800
C412        C  0.39209409  0.73926240  0.44111139    -0.16800
C413        C  0.39191594  0.75093749  0.05930293    -0.16800
C414        C  0.52462645  0.74769193  0.05842813    -0.16800
H415        H  0.49496574  0.77371935  0.38049235     0.16200
H416        H  0.42315709  0.77773000  0.38064628     0.16200
H417        H  0.49503355  0.78472517  0.11969268     0.16200
H418        H  0.42321517  0.78648516  0.12017470     0.16200
H419        H  0.59439311  0.70394697  0.46760854     0.14400
H420        H  0.59432582  0.72070880  0.03054086     0.14400
H421        H  0.32180919  0.71350574  0.46778130     0.14400
H422        H  0.32242988  0.72145434  0.03179568     0.14400
H423        H  0.45775949  0.71303252  0.47235692     0.27700
H424        H  0.45795391  0.72863085  0.02679881     0.27700
C425        C  0.05110249  0.98959178  0.41432617    -0.17000
C426        C  0.07161216  0.98996423  0.39115402     0.07100
C427        C  0.09356508  0.99021885  0.36261528     0.08900
C428        C  0.11085705  0.99072798  0.33741272    -0.17800
C429        C  0.05062721  0.99915320  0.08390485    -0.17000
C430        C  0.07159883  0.00015789  0.10671979     0.07100
C431        C  0.09414276  0.00109728  0.13485035     0.08900
C432        C  0.11167903  0.00109105  0.15989770    -0.17800
C433        C  0.30431084  0.73919570  0.33900277    -0.17000
C434        C  0.32163786  0.73906262  0.36417014     0.07100
C435        C  0.34384409  0.73946190  0.39251309     0.08900
C436        C  0.36472773  0.73975186  0.41538910    -0.17800
C437        C  0.30477607  0.75073433  0.16227875    -0.17000
C438        C  0.32209928  0.75045036  0.13704396     0.07100
C439        C  0.34405937  0.75001638  0.10842196     0.08900
C440        C  0.36462740  0.75010962  0.08522874    -0.17800
C441        C  0.80323792  0.98761733  0.33755790    -0.17000
C442        C  0.82072187  0.98652977  0.36264140     0.07100
C443        C  0.84305610  0.98555206  0.39092847     0.08900
C444        C  0.86387667  0.98520142  0.41387535    -0.17800
C445        C  0.86317301  0.99548957  0.08515622    -0.17000
C446        C  0.84184762  0.99425955  0.10769366     0.07100
C447        C  0.81867271  0.99265752  0.13538616     0.08900
C448        C  0.80084820  0.99163893  0.16025654    -0.17800
C449        C  0.55182388  0.73136220  0.41511478    -0.17000
C450        C  0.57234357  0.73172429  0.39196370     0.07100
C451        C  0.59410119  0.73366862  0.36335812     0.08900
C452        C  0.61118005  0.73563990  0.33808558    -0.17800
C453        C  0.55183886  0.74373600  0.08418306    -0.17000
C454        C  0.57227559  0.74104326  0.10733742     0.07100
C455        C  0.59393752  0.73911087  0.13600567     0.08900
C456        C  0.61096313  0.73833185  0.16133560    -0.17800
In457      In  0.66660303  0.73901358  0.74953510     1.36900
C458        C  0.63289141  0.73293176  0.69169172     0.79100
O459        O  0.66628925  0.83169963  0.74281341    -0.59300
O460        O  0.71687165  0.79229386  0.75242742    -0.50200
C461        C  0.63272207  0.74716187  0.80735336     0.71800
O462        O  0.61599091  0.74420899  0.78048898    -0.45100
C463        C  0.69954508  0.64059601  0.75172922     0.76500
O464        O  0.61607389  0.73695887  0.71845637    -0.57000
O465        O  0.71653134  0.68516009  0.74642349    -0.47000
O466        O  0.66707351  0.73147755  0.69420960    -0.53400
C467        C  0.70003622  0.83704967  0.74728760     0.86700
O468        O  0.66692987  0.74536372  0.80498915    -0.55300
O469        O  0.66578742  0.64624069  0.75622383    -0.58600
In470      In  0.75050092  0.99024952  0.74903863     1.36900
C471        C  0.78476036  0.99227354  0.69157433     0.79100
O472        O  0.75148481  0.89697778  0.75344332    -0.59300
O473        O  0.70132239  0.93585385  0.74166372    -0.50200
C474        C  0.78387867  0.99169049  0.80706653     0.71800
O475        O  0.80134748  0.49949768  0.77997062    -0.45100
C476        C  0.71755994  0.58637134  0.75203513     0.76500
O477        O  0.80138084  0.99476179  0.71853027    -0.57000
O478        O  0.70071071  0.54180895  0.75775929    -0.47000
O479        O  0.74900971  0.49307402  0.69533618    -0.53400
C480        C  0.71810264  0.89122411  0.74726526     0.86700
O481        O  0.74987638  0.99669274  0.80425233    -0.55300
O482        O  0.75100918  0.58059479  0.74603837    -0.58600
In483      In  0.25105992  0.74624475  0.75030886     1.36900
C484        C  0.28501370  0.74808353  0.80805227     0.79100
O485        O  0.25076262  0.83918283  0.74356589    -0.59300
O486        O  0.20134391  0.79970094  0.75713263    -0.50200
C487        C  0.28580739  0.74458777  0.69295166     0.71800
O488        O  0.30213302  0.75087190  0.71983606    -0.45100
C489        C  0.21666847  0.64885454  0.74989105     0.76500
O490        O  0.30135903  0.73898983  0.78146593    -0.57000
O491        O  0.20105570  0.69368914  0.74241734    -0.47000
O492        O  0.25119480  0.75573273  0.80541760    -0.53400
C493        C  0.21744814  0.84446188  0.75034108     0.86700
O494        O  0.25180733  0.73896301  0.69519763    -0.55300
O495        O  0.24974920  0.65370472  0.75752020    -0.58600
In496      In  0.16477552  0.99636439  0.74955773     1.36900
C497        C  0.12941505  0.99669543  0.80682046     0.79100
O498        O  0.16524901  0.90334114  0.75598957    -0.59300
O499        O  0.21509520  0.94341293  0.74438340    -0.50200
C500        C  0.13090278  0.99519063  0.69174476     0.71800
O501        O  0.11547478  0.01018417  0.71783558    -0.45100
C502        C  0.19795735  0.59518893  0.74985607     0.76500
O503        O  0.11416572  0.98490177  0.78008000    -0.57000
O504        O  0.21378858  0.55074308  0.75769735    -0.47000
O505        O  0.16278646  0.00824715  0.80456073    -0.53400
C506        C  0.19883194  0.89838841  0.75028019     0.86700
O507        O  0.16373892  0.98107656  0.69492598    -0.55300
O508        O  0.16492084  0.58973895  0.74212697    -0.58600
N509        N  0.95736539  0.99134253  0.54956052    -0.35100
N510        N  0.01281795  0.99790573  0.99907719    -0.55600
N511        N  0.95564715  0.99908196  0.94971975    -0.35100
N512        N  0.89948772  0.99664062  0.99997284    -0.55600
C513        C  0.98716108  0.98245489  0.56847557     0.28500
C514        C  0.92769686  0.98019810  0.56818328     0.28500
C515        C  0.98523525  0.98762451  0.93098089     0.28500
C516        C  0.92570321  0.98777072  0.93142910     0.28500
C517        C  0.03532677  0.99753998  0.52614695     0.37100
C518        C  0.03383484  0.00586551  0.97232041     0.37100
C519        C  0.87932031  0.99270226  0.52566428     0.37100
C520        C  0.87793593  0.00520947  0.97362598     0.37100
C521        C  0.97622910  0.96615983  0.59959621    -0.20400
C522        C  0.93879565  0.96465064  0.59939588    -0.20400
C523        C  0.97389408  0.96908312  0.90044253    -0.20400
C524        C  0.93643603  0.96926185  0.90070455    -0.20400
C525        C  0.07077880  0.00862338  0.51634980    -0.21400
C526        C  0.06914102  0.01902031  0.98170386    -0.21400
C527        C  0.84364989  0.00208694  0.51585212    -0.21400
C528        C  0.84288920  0.01859868  0.98365567    -0.21400
C529        C  0.02385777  0.99108358  0.55900330    -0.16800
C530        C  0.89088971  0.98681513  0.55851688    -0.16800
C531        C  0.88905217  0.99715024  0.94085324    -0.16800
C532        C  0.02207948  0.99708202  0.93977902    -0.16800
H533        H  0.99341693  0.95651300  0.62040176     0.16200
H534        H  0.92169626  0.95366267  0.62002635     0.16200
H535        H  0.99085015  0.95733181  0.87986741     0.16200
H536        H  0.91908128  0.95765369  0.88037250     0.16200
H537        H  0.09429579  0.01546709  0.53185440     0.14400
H538        H  0.09233609  0.02660589  0.96592450     0.14400
H539        H  0.81997036  0.00760723  0.53133932     0.14400
H540        H  0.81943119  0.02681534  0.96830485     0.14400
H541        H  0.95715188  0.00986870  0.52663149     0.27700
H542        H  0.95584278  0.01976529  0.97202075     0.27700
N543        N  0.45834047  0.75649952  0.94961713    -0.35100
N544        N  0.51423878  0.72960276  0.50042698    -0.55600
N545        N  0.45807671  0.72676965  0.55116728    -0.35100
N546        N  0.40224016  0.73721291  0.50057106    -0.55600
C547        C  0.48790440  0.76905982  0.93116624     0.28500
C548        C  0.42845226  0.76896290  0.93165137     0.28500
C549        C  0.48805195  0.73536929  0.56982584     0.28500
C550        C  0.42870126  0.73941420  0.56981732     0.28500
C551        C  0.53602647  0.74817662  0.97232796     0.37100
C552        C  0.53565025  0.72049336  0.52689741     0.38300
C553        C  0.38070244  0.74758977  0.97327261     0.37100
C554        C  0.38063370  0.72920383  0.52702341     0.37100
C555        C  0.47662482  0.78977252  0.90109114    -0.20400
C556        C  0.43914014  0.78977030  0.90140723    -0.20400
C557        C  0.47752359  0.75218354  0.60098869    -0.20400
C558        C  0.44011461  0.75475634  0.60097858    -0.20400
C559        C  0.57114048  0.73392471  0.98160629    -0.21400
C560        C  0.57092995  0.70877717  0.51691929    -0.21400
C561        C  0.34570177  0.73281562  0.98269440    -0.21400
C562        C  0.34520754  0.71856997  0.51709985    -0.21400
C563        C  0.52461112  0.75855936  0.93980789    -0.16800
C564        C  0.39199384  0.75758661  0.94068887    -0.16800
C565        C  0.39186483  0.73532097  0.55994177    -0.16800
C566        C  0.52457619  0.72689134  0.55989923    -0.16800
H567        H  0.49362727  0.80276242  0.88080690     0.16200
H568        H  0.42173054  0.80271652  0.88139098     0.16200
H569        H  0.49496705  0.76200436  0.62159354     0.16200
H570        H  0.42328058  0.76682536  0.62158241     0.16200
H571        H  0.59443751  0.72725983  0.96581106     0.14400
H572        H  0.59437141  0.70079729  0.53232001     0.14400
H573        H  0.32254514  0.72483635  0.96694488     0.14400
H574        H  0.32169435  0.71129058  0.53252870     0.14400
H575        H  0.45842926  0.73388214  0.97133838     0.27700
H576        H  0.45755622  0.70833735  0.52818244     0.27700
C577        C  0.04918302  0.99654154  0.91377706    -0.17000
C578        C  0.06999140  0.99642043  0.89081081     0.07100
C579        C  0.09238510  0.99664156  0.86253631     0.08900
C580        C  0.11002135  0.99684247  0.83751705    -0.17800
C581        C  0.05127741  0.99176246  0.58472048    -0.17000
C582        C  0.07229173  0.99230876  0.60750988     0.07100
C583        C  0.09475279  0.99308112  0.63568963     0.08900
C584        C  0.11217356  0.99397775  0.66079059    -0.17800
C585        C  0.30383547  0.75009675  0.83893744    -0.17000
C586        C  0.32144389  0.75211370  0.86389831     0.07100
C587        C  0.34400030  0.75447613  0.89195704     0.08900
C588        C  0.36487118  0.75626588  0.91480469    -0.17800
C589        C  0.30463028  0.74413042  0.66204964    -0.17000
C590        C  0.32153686  0.74353281  0.63667541     0.07100
C591        C  0.34332103  0.74172656  0.60811552     0.08900
C592        C  0.36415782  0.73903423  0.58527165    -0.17800
C593        C  0.80219573  0.99308968  0.83822686    -0.17000
C594        C  0.81903647  0.99449236  0.86364263     0.07100
C595        C  0.84080223  0.99600865  0.89225337     0.08900
C596        C  0.86151030  0.99683903  0.91526346    -0.17800
C597        C  0.86352075  0.98731003  0.58419828    -0.17000
C598        C  0.84275694  0.98879274  0.60711487     0.07100
C599        C  0.82073400  0.99097797  0.63548903     0.08900
C600        C  0.80355410  0.99224536  0.66068778    -0.17800
C601        C  0.55177396  0.75870948  0.91374852    -0.17000
C602        C  0.57291838  0.75778457  0.89097478     0.07100
C603        C  0.59595889  0.75540551  0.86307090     0.08900
C604        C  0.61386759  0.75210700  0.83824061    -0.17800
C605        C  0.55238373  0.72728550  0.58526745    -0.17000
C606        C  0.57370154  0.72825123  0.60781961     0.07100
C607        C  0.59653025  0.72952686  0.63575715     0.08900
C608        C  0.61420116  0.73073071  0.66071916    -0.17800
loop_ 
_geom_bond_atom_site_label_1 
_geom_bond_atom_site_label_2 
_geom_bond_distance 
_geom_bond_site_symmetry_2 
_ccdc_geom_bond_type 
In1           O3   2.255       .  S
In1           O4   2.247       .  S
In1          O12   2.258       .  S
In1           O6   2.252       .  S
In1           O8   2.256       .  S
In1           O9   2.256       .  S
In1          O10   2.259       .  S
In1          O13   2.253       .  S
C2            O8   1.259       .  A
C2           O10   1.259       .  A
C2          C152   1.441       .  S
O3           C11   1.260       .  A
O4           C11   1.260       .  A
C5           O12   1.258       .  A
C5            O6   1.259       .  A
C5          C148   1.438       .  S
C7            O9   1.260       .  A
C7           O13   1.260       .  A
C7           C20   1.469       .  S
C11          C24   1.465       .  S
In14         O16   2.246       .  S
In14         O17   2.253       .  S
In14         O25   2.247       .  S
In14         O21   2.246       .  S
In14        O323   2.248       .  S
In14        O326   2.254       .  S
In14        O327   2.250       .  S
In14        O330   2.251       .  S
C15          O21   1.257       .  A
C15         O327   1.258       .  A
C15         C144   1.432       .  S
O16          C24   1.259       .  A
O17          C24   1.260       .  A
C18          O25   1.259       .  A
C18         O323   1.259       .  A
C18         C137   1.435       .  S
O19        In318   2.252       .  S
O19         C322   1.259       .  A
C20          O22   1.260       .  A
C20          O26   1.259       .  A
O22        In318   2.256   1_545  S
O23        In318   2.261       .  S
O23         C319   1.260       .  A
O26        In318   2.258   1_545  S
In27         O29   2.253       .  S
In27         O30   2.252       .  S
In27         O38   2.260       .  S
In27         O32   2.249       .  S
In27         O34   2.243       .  S
In27         O35   2.250       .  S
In27         O36   2.258       .  S
In27         O39   2.255       .  S
C28          O34   1.258       .  A
C28          O36   1.259       .  A
C28         C129   1.436       .  S
O29          C37   1.259       .  A
O30          C37   1.259       .  A
C31          O38   1.259       .  A
C31          O32   1.258       .  A
C31         C133   1.439       .  S
C33          O35   1.260       .  A
C33          O39   1.260       .  A
C33          C46   1.466       .  S
C37          C50   1.465       .  S
In40         O42   2.250       .  S
In40         O43   2.248       .  S
In40         O51   2.248       .  S
In40         O45   2.242       .  S
In40         O47   2.252       .  S
In40         O49   2.248       .  S
In40        O352   2.246       .  S
In40        O356   2.258       .  S
C41          O47   1.259       .  A
C41          O49   1.259       .  A
C41         C124   1.438       .  S
O42          C50   1.260       .  A
O43          C50   1.260       .  A
C44          O51   1.258       .  A
C44          O45   1.258       .  A
C44         C128   1.429       .  S
C46          O48   1.260       .  A
C46          O52   1.259       .  A
O48        In344   2.254   1_545  S
O52        In344   2.251   1_545  S
N53          C58   1.352       .  A
N53          C57   1.352       .  A
N53          H85   1.035       .  S
N54          C62   1.351       .  A
N54         C213   1.351       .  A
N55          C60   1.355       .  A
N55          C59   1.355       .  A
N55          H86   1.037       .  S
N56          C64   1.351       .  A
N56         C215   1.351       .  A
C57          C65   1.388       .  A
C57          C73   1.413   1_655  A
C58          C74   1.412       .  A
C58          C66   1.388       .  A
C59          C67   1.388       .  A
C59          C76   1.417   1_655  A
C60          C75   1.417       .  A
C60          C68   1.388       .  A
C61         N206   1.350       .  A
C61          C73   1.410       .  A
C61          C69   1.387       .  A
C62          C76   1.413       .  A
C62          C70   1.387       .  A
C63         N208   1.351       .  A
C63          C71   1.386       .  A
C63          C74   1.411       .  A
C64          C72   1.387       .  A
C64          C75   1.412       .  A
C65          C66   1.373       .  A
C65          H77   1.082       .  S
C66          H78   1.082       .  S
C67          C68   1.374       .  A
C67          H79   1.082       .  S
C68          H80   1.082       .  S
C69         C222   1.373   1_554  A
C69          H81   1.082       .  S
C70         C221   1.376       .  A
C70          H82   1.083       .  S
C71         C224   1.375   1_554  A
C71          H83   1.082       .  S
C72         C223   1.375       .  A
C72          H84   1.083       .  S
C73         C125   1.444       .  S
C74         C141   1.448       .  S
C75         C140   1.452       .  S
C76         C121   1.454       .  S
N87          C92   1.354       .  A
N87          C91   1.354       .  A
N87         H119   1.036       .  S
N88          C96   1.352   1_556  A
N88         C247   1.352       .  A
N89          C94   1.354       .  A
N89          C93   1.354       .  A
N89         H120   1.039       .  S
N90          C98   1.352       .  A
N90         C249   1.351   1_554  A
C91          C99   1.388       .  A
C91         C107   1.415       .  A
C92         C108   1.414       .  A
C92         C100   1.387       .  A
C93         C101   1.387       .  A
C93         C110   1.413       .  A
C94         C109   1.413       .  A
C94         C102   1.387       .  A
C95         N240   1.352       .  A
C95         C107   1.413       .  A
C95         C103   1.386       .  A
C96         C110   1.412       .  A
C96         C104   1.386       .  A
C97         N242   1.351       .  A
C97         C105   1.386       .  A
C97         C108   1.411       .  A
C98         C106   1.386       .  A
C98         C109   1.411       .  A
C99         C100   1.374       .  A
C99         H111   1.082       .  S
C100        H112   1.082       .  S
C101        C102   1.374       .  A
C101        H113   1.082       .  S
C102        H114   1.082       .  S
C103        C256   1.374       .  A
C103        H115   1.082       .  S
C104        C255   1.374   1_554  A
C104        H116   1.082       .  S
C105        C258   1.373       .  A
C105        H117   1.082       .  S
C106        C257   1.374   1_554  A
C106        H118   1.082       .  S
C107        C145   1.453       .  S
C108        C132   1.451       .  S
C109        C136   1.453       .  S
C110        C149   1.454       .  S
C121        C122   1.208       .  T
C122        C123   1.415       .  S
C123        C124   1.207       .  T
C125        C126   1.202       .  T
C126        C127   1.405       .  S
C127        C128   1.202       .  T
C129        C130   1.206       .  T
C130        C131   1.412       .  S
C131        C132   1.206       .  T
C133        C134   1.208       .  T
C134        C135   1.415       .  S
C135        C136   1.208       .  T
C137        C138   1.206       .  T
C138        C139   1.412       .  S
C139        C140   1.206       .  T
C141        C142   1.204       .  T
C142        C143   1.409       .  S
C143        C144   1.204       .  T
C145        C146   1.208       .  T
C146        C147   1.415       .  S
C147        C148   1.207       .  T
C149        C150   1.209       .  T
C150        C151   1.416       .  S
C151        C152   1.209       .  T
In153       O155   2.254       .  S
In153       O156   2.244       .  S
In153       O164   2.255       .  S
In153       O158   2.248       .  S
In153       O160   2.247       .  S
In153       O161   2.253       .  S
In153       O162   2.258       .  S
In153       O165   2.255       .  S
C154        O160   1.258       .  A
C154        O162   1.259       .  A
C154        C304   1.438       .  S
O155        C163   1.260       .  A
O156        C163   1.260       .  A
C157        O164   1.259       .  A
C157        O158   1.259       .  A
C157        C300   1.437       .  S
C159        O161   1.259       .  A
C159        O165   1.259       .  A
C159        C172   1.465       .  S
C163        C176   1.465       .  S
In166       O168   2.244       .  S
In166       O169   2.257       .  S
In166       O177   2.253       .  S
In166       O475   2.252       .  S
In166       O173   2.246       .  S
In166       O478   2.247       .  S
In166       O479   2.259       .  S
In166       O482   2.246       .  S
C167        O173   1.258       .  A
C167        O479   1.259       .  A
C167        C296   1.437       .  S
O168        C176   1.259       .  A
O169        C176   1.260       .  A
C170        O177   1.259       .  A
C170        O475   1.259       .  A
C170        C289   1.438       .  S
O171       In470   2.249       .  S
O171        C474   1.258       .  A
C172        O174   1.260       .  A
C172        O178   1.260       .  A
O174       In470   2.249   1_545  S
O175       In470   2.254       .  S
O175        C471   1.259       .  A
O178       In470   2.247   1_545  S
In179       O181   2.254       .  S
In179       O182   2.248       .  S
In179       O190   2.248       .  S
In179       O184   2.243       .  S
In179       O186   2.247       .  S
In179       O187   2.250       .  S
In179       O188   2.250       .  S
In179       O191   2.257       .  S
C180        O186   1.259       .  A
C180        O188   1.259       .  A
C180        C281   1.436       .  S
O181        C189   1.258       .  A
O182        C189   1.259       .  A
C183        O190   1.259       .  A
C183        O184   1.259       .  A
C183        C285   1.433       .  S
C185        O187   1.260       .  A
C185        O191   1.260       .  A
C185        C198   1.467       .  S
C189        C202   1.464       .  S
In192       O194   2.246       .  S
In192       O195   2.252       .  S
In192       O203   2.261       .  S
In192       O197   2.248       .  S
In192       O199   2.249       .  S
In192       O504   2.242       .  S
In192       O201   2.256       .  S
In192       O508   2.255       .  S
C193        O199   1.258       .  A
C193        O201   1.258       .  A
C193        C276   1.436       .  S
O194        C202   1.259       .  A
O195        C202   1.259       .  A
C196        O203   1.260       .  A
C196        O197   1.258       .  A
C196        C280   1.440       .  S
C198        O200   1.260       .  A
C198        O204   1.259       .  A
O200       In496   2.258   1_545  S
O204       In496   2.251   1_545  S
N205        C210   1.356       .  A
N205        C209   1.356       .  A
N205        H237   1.035       .  S
N206        C214   1.351   1_554  A
N207        C212   1.354       .  A
N207        C211   1.354       .  A
N207        H238   1.035       .  S
N208        C216   1.351   1_554  A
C209        C217   1.387       .  A
C209        C225   1.419   1_655  A
C210        C226   1.418       .  A
C210        C218   1.387       .  A
C211        C219   1.387       .  A
C211        C228   1.415   1_655  A
C212        C227   1.415       .  A
C212        C220   1.388       .  A
C213        C225   1.414       .  A
C213        C221   1.387       .  A
C214        C228   1.411       .  A
C214        C222   1.387       .  A
C215        C223   1.388       .  A
C215        C226   1.413       .  A
C216        C224   1.386       .  A
C216        C227   1.412       .  A
C217        C218   1.374       .  A
C217        H229   1.082       .  S
C218        H230   1.082       .  S
C219        C220   1.374       .  A
C219        H231   1.082       .  S
C220        H232   1.082       .  S
C221        H233   1.083       .  S
C222        H234   1.082       .  S
C223        H235   1.083       .  S
C224        H236   1.082       .  S
C225        C277   1.456       .  S
C226        C293   1.453       .  S
C227        C292   1.452       .  S
C228        C273   1.450       .  S
N239        C244   1.354       .  A
N239        C243   1.354       .  A
N239        H271   1.036       .  S
N240        C248   1.353       .  A
N241        C246   1.353       .  A
N241        C245   1.354       .  A
N241        H272   1.033       .  S
N242        C250   1.351       .  A
C243        C251   1.388       .  A
C243        C259   1.415       .  A
C244        C260   1.414       .  A
C244        C252   1.388       .  A
C245        C253   1.388       .  A
C245        C262   1.417       .  A
C246        C261   1.416       .  A
C246        C254   1.388       .  A
C247        C259   1.412       .  A
C247        C255   1.387       .  A
C248        C262   1.415       .  A
C248        C256   1.387       .  A
C249        C257   1.386       .  A
C249        C260   1.411       .  A
C250        C258   1.387       .  A
C250        C261   1.413       .  A
C251        C252   1.374       .  A
C251        H263   1.082       .  S
C252        H264   1.082       .  S
C253        C254   1.374       .  A
C253        H265   1.082       .  S
C254        H266   1.082       .  S
C255        H267   1.082       .  S
C256        H268   1.082       .  S
C257        H269   1.082       .  S
C258        H270   1.082       .  S
C259        C297   1.452       .  S
C260        C284   1.451       .  S
C261        C288   1.449       .  S
C262        C301   1.454       .  S
C273        C274   1.206       .  T
C274        C275   1.412       .  S
C275        C276   1.206       .  T
C277        C278   1.209       .  T
C278        C279   1.417       .  S
C279        C280   1.209       .  T
C281        C282   1.206       .  T
C282        C283   1.412       .  S
C283        C284   1.206       .  T
C285        C286   1.204       .  T
C286        C287   1.409       .  S
C287        C288   1.204       .  T
C289        C290   1.207       .  T
C290        C291   1.414       .  S
C291        C292   1.207       .  T
C293        C294   1.207       .  T
C294        C295   1.414       .  S
C295        C296   1.207       .  T
C297        C298   1.207       .  T
C298        C299   1.413       .  S
C299        C300   1.206       .  T
C301        C302   1.208       .  T
C302        C303   1.415       .  S
C303        C304   1.207       .  T
In305       O307   2.254       .  S
In305       O308   2.259       .  S
In305       O316   2.255       .  S
In305       O310   2.249       .  S
In305       O312   2.251       .  S
In305       O313   2.255       .  S
In305       O314   2.257       .  S
In305       O317   2.257       .  S
C306        O312   1.259       .  A
C306        O314   1.259       .  A
C306        C456   1.438       .  S
O307        C315   1.258       .  A
O308        C315   1.260       .  A
C309        O316   1.259       .  A
C309        O310   1.259       .  A
C309        C452   1.438       .  S
C311        O313   1.260       .  A
C311        O317   1.259       .  A
C311        C324   1.468       .  S
C315        C328   1.468       .  S
In318       O320   2.258       .  S
In318       O321   2.253       .  S
In318       O329   2.259       .  S
In318       O325   2.246       .  S
C319        O325   1.258       .  A
C319        C448   1.438       .  S
O320        C328   1.259       .  A
O321        C328   1.260       .  A
C322        O329   1.259       .  A
C322        C441   1.439       .  S
C324        O326   1.260       .  A
C324        O330   1.259       .  A
In331       O333   2.249       .  S
In331       O334   2.254       .  S
In331       O342   2.261       .  S
In331       O336   2.256       .  S
In331       O338   2.257       .  S
In331       O339   2.257       .  S
In331       O340   2.261       .  S
In331       O343   2.248       .  S
C332        O338   1.258       .  A
C332        O340   1.258       .  A
C332        C433   1.439       .  S
O333        C341   1.261       .  A
O334        C341   1.260       .  A
C335        O342   1.259       .  A
C335        O336   1.259       .  A
C335        C437   1.442       .  S
C337        O339   1.259       .  A
C337        O343   1.258       .  A
C337        C350   1.464       .  S
C341        C354   1.467       .  S
In344       O346   2.259       .  S
In344       O347   2.250       .  S
In344       O355   2.261       .  S
In344       O349   2.247       .  S
In344       O351   2.250       .  S
In344       O353   2.261       .  S
C345        O351   1.258       .  A
C345        O353   1.259       .  A
C345        C428   1.439       .  S
O346        C354   1.259       .  A
O347        C354   1.258       .  A
C348        O355   1.259       .  A
C348        O349   1.258       .  A
C348        C432   1.438   1_565  S
C350        O352   1.258       .  A
C350        O356   1.259       .  A
N357        C362   1.355       .  A
N357        C361   1.355       .  A
N357        H389   1.038   1_565  S
N358        C517   1.352       .  A
N358        C366   1.352       .  A
N359        C364   1.355       .  A
N359        C363   1.354       .  A
N359        H390   1.037   1_565  S
N360        C519   1.351       .  A
N360        C368   1.352       .  A
C361        C369   1.387       .  A
C361        C377   1.416   1_655  A
C362        C378   1.416       .  A
C362        C370   1.387       .  A
C363        C371   1.387       .  A
C363        C380   1.415   1_655  A
C364        C379   1.414       .  A
C364        C372   1.387       .  A
C365        N510   1.350   1_544  A
C365        C377   1.411   1_545  A
C365        C373   1.387       .  A
C366        C380   1.413       .  A
C366        C374   1.387   1_565  A
C367        N512   1.350   1_544  A
C367        C375   1.387       .  A
C367        C378   1.410   1_545  A
C368        C376   1.386   1_565  A
C368        C379   1.411       .  A
C369        C370   1.375       .  A
C369        H381   1.082       .  S
C370        H382   1.082       .  S
C371        C372   1.374       .  A
C371        H383   1.082       .  S
C372        H384   1.082       .  S
C373        C526   1.376   1_554  A
C373        H385   1.083       .  S
C374        C525   1.375       .  A
C374        H386   1.082       .  S
C375        C528   1.376   1_554  A
C375        H387   1.083       .  S
C376        C527   1.374       .  A
C376        H388   1.082       .  S
C377        C429   1.453       .  S
C378        C445   1.452       .  S
C379        C444   1.454       .  S
C380        C425   1.454       .  S
N391        C396   1.352       .  A
N391        C395   1.352       .  A
N391        H423   1.037       .  S
N392        C551   1.353       .  A
N392        C400   1.351   1_556  A
N393        C398   1.355       .  A
N393        C397   1.353       .  A
N393        H424   1.039       .  S
N394        C553   1.351   1_554  A
N394        C402   1.352       .  A
C395        C403   1.389       .  A
C395        C411   1.414       .  A
C396        C412   1.413       .  A
C396        C404   1.388       .  A
C397        C405   1.388       .  A
C397        C414   1.415       .  A
C398        C413   1.415       .  A
C398        C406   1.387       .  A
C399        N544   1.354       .  A
C399        C411   1.415       .  A
C399        C407   1.386       .  A
C400        C414   1.413       .  A
C400        C408   1.387       .  A
C401        N546   1.353       .  A
C401        C409   1.386       .  A
C401        C412   1.413       .  A
C402        C410   1.386       .  A
C402        C413   1.412       .  A
C403        C404   1.375       .  A
C403        H415   1.083       .  S
C404        H416   1.083       .  S
C405        C406   1.375       .  A
C405        H417   1.082       .  S
C406        H418   1.082       .  S
C407        C560   1.374       .  A
C407        H419   1.082       .  S
C408        C559   1.375   1_554  A
C408        H420   1.082       .  S
C409        C562   1.373       .  A
C409        H421   1.082       .  S
C410        C561   1.376   1_554  A
C410        H422   1.082       .  S
C411        C449   1.453       .  S
C412        C436   1.452       .  S
C413        C440   1.456       .  S
C414        C453   1.452       .  S
C425        C426   1.208       .  T
C426        C427   1.415       .  S
C427        C428   1.208       .  T
C429        C430   1.208   1_565  T
C430        C431   1.415       .  S
C431        C432   1.207       .  T
C433        C434   1.207       .  T
C434        C435   1.414       .  S
C435        C436   1.207       .  T
C437        C438   1.210       .  T
C438        C439   1.418       .  S
C439        C440   1.210       .  T
C441        C442   1.208       .  T
C442        C443   1.415       .  S
C443        C444   1.208       .  T
C445        C446   1.208       .  T
C446        C447   1.414       .  S
C447        C448   1.207       .  T
C449        C450   1.208       .  T
C450        C451   1.414       .  S
C451        C452   1.207       .  T
C453        C454   1.208       .  T
C454        C455   1.415       .  S
C455        C456   1.207       .  T
In457       O459   2.246       .  S
In457       O460   2.250       .  S
In457       O468   2.267       .  S
In457       O462   2.249       .  S
In457       O464   2.247       .  S
In457       O465   2.247       .  S
In457       O466   2.264       .  S
In457       O469   2.248       .  S
C458        O464   1.258       .  A
C458        O466   1.259       .  A
C458        C608   1.438       .  S
O459        C467   1.258       .  A
O460        C467   1.259       .  A
C461        O468   1.260       .  A
C461        O462   1.258       .  A
C461        C604   1.442       .  S
C463        O465   1.259       .  A
C463        O469   1.260       .  A
C463        C476   1.462       .  S
C467        C480   1.462       .  S
In470       O472   2.251       .  S
In470       O473   2.250       .  S
In470       O481   2.257       .  S
In470       O477   2.246       .  S
C471        O477   1.259       .  A
C471        C600   1.436       .  S
O472        C480   1.258       .  A
O473        C480   1.258       .  A
C474        O481   1.259       .  A
C474        C593   1.438       .  S
C476        O478   1.259       .  A
C476        O482   1.259       .  A
In483       O485   2.252       .  S
In483       O486   2.249       .  S
In483       O494   2.255       .  S
In483       O488   2.252       .  S
In483       O490   2.248       .  S
In483       O491   2.252       .  S
In483       O492   2.259       .  S
In483       O495   2.246       .  S
C484        O490   1.258       .  A
C484        O492   1.259       .  A
C484        C585   1.437       .  S
O485        C493   1.260       .  A
O486        C493   1.259       .  A
C487        O494   1.258       .  A
C487        O488   1.259       .  A
C487        C589   1.437       .  S
C489        O491   1.259       .  A
C489        O495   1.259       .  A
C489        C502   1.462       .  S
C493        C506   1.466       .  S
In496       O498   2.253       .  S
In496       O499   2.253       .  S
In496       O507   2.258       .  S
In496       O501   2.249   1_565  S
In496       O503   2.253       .  S
In496       O505   2.262   1_565  S
C497        O503   1.258       .  A
C497        O505   1.259   1_565  A
C497        C580   1.440       .  S
O498        C506   1.260       .  A
O499        C506   1.260       .  A
C500        O507   1.258       .  A
C500        O501   1.258   1_565  A
C500        C584   1.438       .  S
C502        O504   1.258       .  A
C502        O508   1.259       .  A
N509        C514   1.354       .  A
N509        C513   1.355       .  A
N509        H541   1.036   1_565  S
N510        C518   1.350   1_565  A
N511        C516   1.356       .  A
N511        C515   1.356       .  A
N511        H542   1.037   1_565  S
N512        C520   1.350   1_565  A
C513        C521   1.388       .  A
C513        C529   1.416   1_655  A
C514        C530   1.416       .  A
C514        C522   1.388       .  A
C515        C523   1.387       .  A
C515        C532   1.417   1_655  A
C516        C531   1.417       .  A
C516        C524   1.387       .  A
C517        C529   1.413       .  A
C517        C525   1.387   1_565  A
C518        C532   1.411   1_545  A
C518        C526   1.388       .  A
C519        C527   1.387   1_565  A
C519        C530   1.413       .  A
C520        C528   1.387       .  A
C520        C531   1.411   1_545  A
C521        C522   1.374       .  A
C521        H533   1.082       .  S
C522        H534   1.082       .  S
C523        C524   1.375       .  A
C523        H535   1.082       .  S
C524        H536   1.082       .  S
C525        H537   1.082       .  S
C526        H538   1.083       .  S
C527        H539   1.082       .  S
C528        H540   1.083       .  S
C529        C581   1.453       .  S
C530        C597   1.451       .  S
C531        C596   1.453       .  S
C532        C577   1.454       .  S
N543        C548   1.353       .  A
N543        C547   1.354       .  A
N543        H575   1.040       .  S
N544        C552   1.353       .  A
N545        C550   1.354       .  A
N545        C549   1.353       .  A
N545        H576   1.037       .  S
N546        C554   1.353       .  A
C547        C555   1.387       .  A
C547        C563   1.415       .  A
C548        C564   1.414       .  A
C548        C556   1.388       .  A
C549        C557   1.389       .  A
C549        C566   1.415       .  A
C550        C565   1.414       .  A
C550        C558   1.388       .  A
C551        C563   1.413       .  A
C551        C559   1.386       .  A
C552        C566   1.414       .  A
C552        C560   1.386       .  A
C553        C561   1.387       .  A
C553        C564   1.413       .  A
C554        C562   1.385       .  A
C554        C565   1.412       .  A
C555        C556   1.376       .  A
C555        H567   1.082       .  S
C556        H568   1.082       .  S
C557        C558   1.374       .  A
C557        H569   1.082       .  S
C558        H570   1.083       .  S
C559        H571   1.082       .  S
C560        H572   1.082       .  S
C561        H573   1.082       .  S
C562        H574   1.082       .  S
C563        C601   1.457       .  S
C564        C588   1.451       .  S
C565        C592   1.452       .  S
C566        C605   1.453       .  S
C577        C578   1.208       .  T
C578        C579   1.416       .  S
C579        C580   1.208       .  T
C581        C582   1.208       .  T
C582        C583   1.414       .  S
C583        C584   1.207       .  T
C585        C586   1.207       .  T
C586        C587   1.413       .  S
C587        C588   1.207       .  T
C589        C590   1.207       .  T
C590        C591   1.413       .  S
C591        C592   1.207       .  T
C593        C594   1.207       .  T
C594        C595   1.414       .  S
C595        C596   1.208       .  T
C597        C598   1.206       .  T
C598        C599   1.412       .  S
C599        C600   1.206       .  T
C601        C602   1.210       .  T
C602        C603   1.419       .  S
C603        C604   1.210       .  T
C605        C606   1.208       .  T
C606        C607   1.414       .  S
C607        C608   1.207       .  T
