geometry optimzed in LAMMPS
_audit_creation_date              2020-11-30 
_audit_creation_method            'lammps2cif' 
_symmetry_space_group_name_H-M    'P1' 
_symmetry_Int_Tables_number       1 
_symmetry_cell_setting            triclinic 
loop_ 
_symmetry_equiv_pos_as_xyz 
  x,y,z 
_cell_length_a                    33.951777 
_cell_length_b                    33.91575892154879 
_cell_length_c                    33.886024269153815 
_cell_angle_alpha                 91.06685096239119 
_cell_angle_beta                  90.85745260402389 
_cell_angle_gamma                 88.28694507333726 
loop_ 
_atom_site_label 
_atom_site_type_symbol 
_atom_site_fract_x 
_atom_site_fract_y 
_atom_site_fract_z 
_atom_site_charge 
C1          C  0.54397202  0.93118005  0.72653747     0.83700
N2          N  0.57817118  0.90909131  0.72855200    -0.74600
C3          C  0.57705060  0.86919100  0.72315425     0.86100
N4          N  0.54217381  0.85172067  0.71558970    -0.74500
C5          C  0.50828363  0.87363132  0.71355836     0.86200
N6          N  0.50930796  0.91319953  0.71908446    -0.76300
C7          C  0.56680193  0.04074265  0.74686997     0.83700
N8          N  0.59743785  0.06584363  0.75059868    -0.74600
C9          C  0.58991072  0.10503573  0.75816981     0.86100
N10         N  0.55225766  0.11877882  0.76230319    -0.74500
C11         C  0.52199049  0.09395072  0.75870670     0.86200
N12         N  0.52930203  0.05523073  0.75111503    -0.76300
C13         C  0.92110383  0.72143012  0.54359257     0.83700
N14         N  0.90028222  0.71743405  0.50937305    -0.74600
C15         C  0.86089151  0.71339571  0.50952120     0.86100
N16         N  0.84180446  0.71317214  0.54419205    -0.74500
C17         C  0.86200465  0.71717621  0.57884276     0.86200
N18         N  0.90197087  0.72127781  0.57883678    -0.76300
C19         C  0.03245365  0.73707906  0.56045969     0.83700
N20         N  0.04366912  0.74106901  0.52230608    -0.74600
C21         C  0.08176820  0.74702478  0.51343666     0.86100
N22         N  0.10907160  0.74910967  0.54289613    -0.74500
C23         C  0.09842889  0.74513712  0.58108323     0.86200
N24         N  0.06005577  0.73929872  0.58997327    -0.76300
C25         C  0.52495379  0.73515768  0.43131721     0.83700
N26         N  0.54421633  0.73146481  0.46654200    -0.74600
C27         C  0.58363046  0.72464097  0.46805772     0.86100
N28         N  0.60409002  0.72155185  0.43421654    -0.74500
C29         C  0.58534064  0.72541079  0.39881591     0.86200
N30         N  0.54554148  0.73194147  0.39708600    -0.76300
C31         C  0.41370444  0.74152745  0.40739880     0.83700
N32         N  0.40005866  0.74540516  0.44481309    -0.74600
C33         C  0.36104779  0.74706080  0.45193784     0.86100
N34         N  0.33498917  0.74502245  0.42143070    -0.74500
C35         C  0.34799745  0.74102581  0.38380871     0.86200
N36         N  0.38745538  0.73935361  0.37661054    -0.76300
C37         C  0.72141718  0.56197257  0.93718664     0.83700
N38         N  0.71713796  0.52505833  0.92166644    -0.74600
C39         C  0.71332263  0.51908410  0.88229163     0.86100
N40         N  0.71368573  0.55016874  0.85790709    -0.74500
C41         C  0.71800016  0.58723685  0.87282138     0.86200
N42         N  0.72171079  0.59334006  0.91257703    -0.76300
C43         C  0.73270802  0.53706615  0.04734707     0.83700
N44         N  0.73085433  0.57144344  0.06880395    -0.74600
C45         C  0.73513288  0.57043244  0.10878879     0.86100
N46         N  0.74157837  0.53549993  0.12704928    -0.74500
C47         C  0.74343340  0.50141786  0.10573197     0.86200
N48         N  0.73896030  0.50228271  0.06601968    -0.76300
Zn49       Zn  0.69089756  0.25636010  0.83948149     1.49700
Zn50       Zn  0.64666323  0.28934430  0.76182706     1.49400
Zn51       Zn  0.63994334  0.33862248  0.84251971     1.49100
Zn52       Zn  0.72328227  0.33249784  0.79869082     1.49500
O53         O  0.67520541  0.30418078  0.81057374    -1.80600
O54         O  0.67184612  0.20692811  0.81142474    -0.71300
O55         O  0.59126032  0.31442913  0.75955726    -0.71100
O56         O  0.63111632  0.31466968  0.89529587    -0.70600
O57         O  0.64114933  0.23001576  0.75768062    -0.71300
O58         O  0.66645984  0.25823888  0.89329861    -0.70900
O59         O  0.58674206  0.34843345  0.81607433    -0.71500
O60         O  0.72100462  0.38775072  0.82237273    -0.70900
O61         O  0.67514633  0.30870454  0.71438746    -0.71600
O62         O  0.66323584  0.39176362  0.85256216    -0.71000
O63         O  0.72772016  0.33840475  0.73992620    -0.71500
O64         O  0.77300799  0.30531591  0.82068792    -0.71400
O65         O  0.75009228  0.25190940  0.84852983    -0.71200
C66         C  0.65209750  0.20151298  0.77964020     0.80600
C67         C  0.57201281  0.33708268  0.78320839     0.81100
C68         C  0.64369734  0.28290900  0.91108828     0.80100
C69         C  0.69539054  0.40683097  0.84272226     0.80400
C70         C  0.70628211  0.32819708  0.71056221     0.81600
C71         C  0.77850218  0.27379450  0.84010957     0.80600
Zn72       Zn  0.34743310  0.76585064  0.65309480     1.49700
Zn73       Zn  0.26605278  0.76145574  0.70208504     1.49400
Zn74       Zn  0.31210740  0.84389533  0.69580976     1.49100
Zn75       Zn  0.26929260  0.80883304  0.61986840     1.49500
O76         O  0.29862925  0.79468081  0.66810031    -1.80600
O77         O  0.34917688  0.71197787  0.67733350    -0.71300
O78         O  0.25738518  0.78894338  0.75620579    -0.71100
O79         O  0.37105126  0.84859618  0.70184146    -0.70600
O80         O  0.29354440  0.70713202  0.71079484    -0.71300
O81         O  0.39612853  0.79508836  0.67133210    -0.70900
O82         O  0.28869745  0.84535483  0.75014995    -0.71500
O83         O  0.26370961  0.86756989  0.61245789    -0.70900
O84         O  0.21191792  0.75268088  0.67563453    -0.71600
O85         O  0.29273373  0.89249903  0.66613762    -0.71000
O86         O  0.21552233  0.78697144  0.62039125    -0.71500
O87         O  0.29551119  0.78689642  0.57127730    -0.71400
O88         O  0.35071152  0.75778780  0.59375996    -0.71200
C89         C  0.32648464  0.69258037  0.69881671     0.80600
C90         C  0.26831014  0.82219251  0.77015541     0.81100
C91         C  0.40041023  0.82749911  0.69028521     0.80100
C92         C  0.27464440  0.89690581  0.63326961     0.80400
C93         C  0.19685265  0.76521323  0.64328778     0.81600
C94         C  0.32767167  0.76778442  0.56547375     0.80600
C95         C  0.02443356  0.53228550  0.23581499     0.83700
N96         N  0.05786354  0.55375154  0.23719369    -0.74600
C97         C  0.05482419  0.59367188  0.24307893     0.86100
N98         N  0.01892792  0.61161022  0.24813398    -0.74500
C99         C  0.98590236  0.59032162  0.24686129     0.86200
N100        N  0.98876422  0.55084878  0.24069575    -0.76300
C101        C  0.05190734  0.42090945  0.22776338     0.83700
N102        N  0.01507349  0.40614860  0.22855659    -0.74600
C103        C  0.00966155  0.36681466  0.22644389     0.86100
N104        N  0.04120219  0.34174299  0.22316032    -0.74500
C105        C  0.07817827  0.35579336  0.22240108     0.86200
N106        N  0.08371050  0.39548514  0.22464709    -0.76300
Zn107      Zn  0.80375435  0.68664784  0.25187808     1.49700
Zn108      Zn  0.81122786  0.63844818  0.33150147     1.49400
Zn109      Zn  0.76190148  0.72043037  0.33048931     1.49100
Zn110      Zn  0.72793517  0.64478293  0.28568512     1.49500
O111        O  0.77615814  0.67263768  0.29984661    -1.80600
O112        O  0.85878563  0.66166793  0.25017254    -0.71300
O113        O  0.82277652  0.66312400  0.38445395    -0.71100
O114        O  0.78021617  0.76910548  0.30384067    -0.70600
O115        O  0.86296104  0.62655811  0.30489626    -0.71300
O116        O  0.80898557  0.74551841  0.24923807    -0.70900
O117        O  0.78756059  0.71953370  0.38472693    -0.71500
O118        O  0.67896232  0.67358577  0.30568944    -0.70900
O119        O  0.78652062  0.58680845  0.34136847    -0.71600
O120        O  0.70327455  0.72519688  0.33834144    -0.71000
O121        O  0.72854018  0.59089035  0.30998927    -0.71500
O122        O  0.72396595  0.63604509  0.22692818    -0.71400
O123        O  0.77582820  0.66606267  0.20315937    -0.71200
C124        C  0.87755555  0.63809433  0.27294159     0.80600
C125        C  0.81103633  0.69493398  0.40147232     0.81100
C126        C  0.79889265  0.77409937  0.27214910     0.80100
C127        C  0.67438958  0.70451772  0.32713393     0.80400
C128        C  0.75380558  0.57225235  0.33115220     0.81600
C129        C  0.74533007  0.64554500  0.19829348     0.80600
C130        C  0.93368019  0.23843714  0.94065719     0.83700
N131        N  0.91138308  0.24368155  0.90707515    -0.74600
C132        C  0.87159210  0.25053118  0.91013945     0.86100
N133        N  0.85470635  0.25235499  0.94618029    -0.74500
C134        C  0.87680188  0.24714100  0.97923975     0.86200
N135        N  0.91605193  0.24029135  0.97638328    -0.76300
C136        C  0.04436109  0.22375156  0.91569794     0.83700
N137        N  0.05902493  0.21669319  0.95265537    -0.74600
C138        C  0.09814125  0.21032385  0.95898538     0.86100
N139        N  0.12301249  0.21084637  0.92828418    -0.74500
C140        C  0.10911088  0.21784599  0.89128579     0.86200
N141        N  0.06966883  0.22420567  0.88474907    -0.76300
Zn142      Zn  0.82697917  0.28102519  0.23709291     1.49700
Zn143      Zn  0.78370173  0.24542278  0.15948853     1.49400
Zn144      Zn  0.74793707  0.32338161  0.20162539     1.49100
Zn145      Zn  0.82936154  0.32671278  0.15551347     1.49500
O146        O  0.79694934  0.29405115  0.18859238    -1.80600
O147        O  0.83573555  0.22191682  0.24097889    -0.71300
O148        O  0.72476647  0.24193943  0.15033844    -0.71100
O149        O  0.74439983  0.33171333  0.26058791    -0.70600
O150        O  0.80456158  0.19732637  0.18807867    -0.71300
O151        O  0.79868293  0.30241559  0.28555482    -0.70900
O152        O  0.69953422  0.29554649  0.18060242    -0.71500
O153        O  0.80238978  0.37872104  0.14362786    -0.70900
O154        O  0.80923282  0.24338256  0.10578066    -0.71600
O155        O  0.74630859  0.37736902  0.17662713    -0.71000
O156        O  0.84103788  0.29969999  0.10375982    -0.71500
O157        O  0.88156241  0.33793512  0.18120816    -0.71400
O158        O  0.88116610  0.30529246  0.23749903    -0.71200
C159        C  0.82547324  0.19284593  0.21922961     0.80600
C160        C  0.69540922  0.26409959  0.16002855     0.81100
C161        C  0.76662296  0.32240164  0.28977036     0.80100
C162        C  0.76976876  0.39462971  0.15414816     0.80400
C163        C  0.83114732  0.26704069  0.08821219     0.81600
C164        C  0.89813912  0.32719012  0.21325000     0.80600
C165        C  0.43697992  0.21064549  0.06822247     0.83700
N166        N  0.42443410  0.20702423  0.02989453    -0.74600
C167        C  0.38619352  0.19991893  0.02104288     0.86100
N168        N  0.36025843  0.19633487  0.05053407    -0.74500
C169        C  0.37222190  0.19986266  0.08874911     0.86200
N170        N  0.41059092  0.20708691  0.09776813    -0.76300
C171        C  0.54587409  0.23519578  0.05197976     0.83700
N172        N  0.56363433  0.24480866  0.01808279    -0.74600
C173        C  0.60127336  0.25637645  0.01832020     0.86100
N174        N  0.62185087  0.25810586  0.05267700    -0.74500
C175        C  0.60479647  0.24841284  0.08699156     0.86200
N176        N  0.56647296  0.23695464  0.08696675    -0.76300
C177        C  0.23875799  0.91926789  0.92811370     0.83700
N178        N  0.24661292  0.95450941  0.91212727    -0.74600
C179        C  0.25561120  0.95713126  0.87364790     0.86100
N180        N  0.25676926  0.92427173  0.85053193    -0.74500
C181        C  0.24890437  0.88865362  0.86571504     0.86200
N182        N  0.23995849  0.88580049  0.90484629    -0.76300
C183        C  0.21644107  0.89576590  0.03704841     0.83700
N184        N  0.21550369  0.93323088  0.05244177    -0.74600
C185        C  0.20889000  0.94011655  0.09132165     0.86100
N186        N  0.20292022  0.90939658  0.11519794    -0.74500
C187        C  0.20376734  0.87186266  0.10052355     0.86200
N188        N  0.21047434  0.86490119  0.06135175    -0.76300
Zn189      Zn  0.28116366  0.15327135  0.85349260     1.49700
Zn190      Zn  0.35611335  0.19341769  0.81965774     1.49400
Zn191      Zn  0.32244843  0.11709663  0.77630570     1.49100
Zn192      Zn  0.27324991  0.19971904  0.77070041     1.49500
O193        O  0.30796316  0.16608773  0.80482529    -1.80600
O194        O  0.31206593  0.16942446  0.90274435    -0.71300
O195        O  0.40427693  0.16496914  0.79843723    -0.71100
O196        O  0.30295259  0.06938568  0.80366477    -0.70600
O197        O  0.36456851  0.19778681  0.87878131    -0.71300
O198        O  0.27318740  0.09485196  0.85676031    -0.70900
O199        O  0.38119642  0.11037748  0.77036810    -0.71500
O200        O  0.26381721  0.17313711  0.71661978    -0.70900
O201        O  0.35450666  0.24749552  0.79714327    -0.71600
O202        O  0.29859343  0.11673635  0.72189868    -0.71000
O203        O  0.29866694  0.25274684  0.76186450    -0.71500
O204        O  0.21969061  0.20986760  0.79661828    -0.71400
O205        O  0.22738040  0.17950819  0.85416396    -0.71200
C206        C  0.34473262  0.18642978  0.90776634     0.80600
C207        C  0.40961075  0.13222030  0.78022492     0.81100
C208        C  0.28361623  0.06548544  0.83510378     0.80100
C209        C  0.27626711  0.14012018  0.70226660     0.80400
C210        C  0.33095034  0.26681802  0.77470384     0.81600
C211        C  0.20664021  0.19988831  0.82998566     0.80600
C212        C  0.22627604  0.02983930  0.42841217     0.83700
N213        N  0.22589724  0.06338573  0.40652071    -0.74600
C214        C  0.21569494  0.06113533  0.36730546     0.86100
N215        N  0.20568284  0.02611209  0.35068330    -0.74500
C216        C  0.20598410  0.99318559  0.37241789     0.86200
N217        N  0.21643831  0.99508177  0.41097934    -0.76300
C218        C  0.24616579  0.05275964  0.53924497     0.83700
N219        N  0.24821542  0.08378621  0.56537991    -0.74600
C220        C  0.25439343  0.07694383  0.60456711     0.86100
N221        N  0.25856685  0.03941965  0.61746914    -0.74500
C222        C  0.25650471  0.00853884  0.59180107     0.86200
N223        N  0.25038570  0.01523585  0.55285043    -0.76300
Zn224      Zn  0.13907625  0.12441714  0.13513084     1.49700
Zn225      Zn  0.14385739  0.17144276  0.21866840     1.49400
Zn226      Zn  0.21969767  0.12373002  0.18536458     1.49100
Zn227      Zn  0.18724698  0.20385800  0.14324442     1.49500
O228        O  0.17264029  0.15587040  0.17064778    -1.80600
O229        O  0.08680377  0.11551268  0.15971153    -0.71300
O230        O  0.17131375  0.15110624  0.26820970    -0.71100
O231        O  0.21911111  0.06910689  0.15864508    -0.70600
O232        O  0.08991094  0.14819947  0.21722637    -0.71300
O233        O  0.16370536  0.07090302  0.12277162    -0.70900
O234        O  0.22273988  0.11620826  0.24483865    -0.71500
O235        O  0.24636907  0.20507106  0.13852323    -0.70900
O236        O  0.13550492  0.23067967  0.22290552    -0.71600
O237        O  0.26893663  0.15016896  0.16755319    -0.71000
O238        O  0.16672301  0.25364613  0.17122847    -0.71500
O239        O  0.16321621  0.20565514  0.08798030    -0.71400
O240        O  0.12814141  0.15137736  0.08354196    -0.71200
C241        C  0.07165032  0.12683216  0.19220666     0.80600
C242        C  0.20164427  0.12874128  0.27352412     0.81100
C243        C  0.19503986  0.05301229  0.13449610     0.80100
C244        C  0.27458583  0.18179451  0.14901903     0.80400
C245        C  0.14583222  0.25917182  0.20182919     0.81600
C246        C  0.13992888  0.18316370  0.06906890     0.80600
C247        C  0.89447985  0.92730334  0.25021413     0.83700
N248        N  0.86180164  0.90506801  0.25184370    -0.74600
C249        C  0.86595400  0.86536684  0.25656217     0.86100
N250        N  0.90235408  0.84808596  0.25985914    -0.74500
C251        C  0.93477661  0.87008144  0.25831004     0.86200
N252        N  0.93080414  0.90948356  0.25356402    -0.76300
C253        C  0.92448880  0.03407974  0.23307387     0.83700
N254        N  0.95983802  0.04912421  0.22442109    -0.74600
C255        C  0.96311428  0.08804549  0.21800153     0.86100
N256        N  0.93095855  0.11235993  0.22041124    -0.74500
C257        C  0.89542123  0.09782077  0.22921947     0.86200
N258        N  0.89189281  0.05849025  0.23546692    -0.76300
Zn259      Zn  0.13271130  0.83446352  0.26875416     1.49700
Zn260      Zn  0.17471916  0.79927603  0.34557327     1.49400
Zn261      Zn  0.09862262  0.75946692  0.31111920     1.49100
Zn262      Zn  0.18059440  0.75098475  0.26214331     1.49500
O263        O  0.14682018  0.78570775  0.29653792    -1.80600
O264        O  0.15419644  0.88235280  0.29680886    -0.71300
O265        O  0.14698703  0.78210738  0.39450488    -0.71100
O266        O  0.05005094  0.78991543  0.29229512    -0.70600
O267        O  0.18215028  0.85743519  0.35097985    -0.71300
O268        O  0.07394817  0.84270585  0.26404627    -0.70900
O269        O  0.09340892  0.75373375  0.37047389    -0.71500
O270        O  0.15453093  0.69763685  0.25285350    -0.70900
O271        O  0.22867188  0.77468422  0.34539733    -0.71600
O272        O  0.09856595  0.70541952  0.28622904    -0.71000
O273        O  0.23512317  0.74193327  0.28811010    -0.71500
O274        O  0.18888558  0.77647072  0.20835180    -0.71400
O275        O  0.15484754  0.83336646  0.21423436    -0.71200
C276        C  0.17296108  0.88648453  0.32927945     0.80600
C277        C  0.11495472  0.76451919  0.39953154     0.81100
C278        C  0.04513220  0.82253809  0.27469922     0.80100
C279        C  0.12178243  0.68477052  0.26449836     0.80400
C280        C  0.24900326  0.75368903  0.32136333     0.81600
C281        C  0.17658792  0.80938906  0.19443128     0.80600
C282        C  0.41255061  0.42751042  0.74501037     0.83700
N283        N  0.45058015  0.41436700  0.75070385    -0.74600
C284        C  0.45912740  0.37575637  0.75756318     0.86100
N285        N  0.42951613  0.35001305  0.75892151    -0.74500
C286        C  0.39154355  0.36255051  0.75326303     0.86200
N287        N  0.38292296  0.40134068  0.74643104    -0.76300
C288        C  0.42978119  0.53844960  0.72862957     0.83700
N289        N  0.46422929  0.55691968  0.72396048    -0.74600
C290        C  0.46469166  0.59591218  0.71701982     0.86100
N291        N  0.43045060  0.61705469  0.71476658    -0.74500
C292        C  0.39554993  0.59939042  0.71948656     0.86200
N293        N  0.39487342  0.55970477  0.72632995    -0.76300
C294        C  0.73119725  0.43116396  0.43758661     0.83700
N295        N  0.73684658  0.39606694  0.41779918    -0.74600
C296        C  0.74250901  0.39609089  0.37801890     0.86100
N297        N  0.74301434  0.43067546  0.35857989    -0.74500
C298        C  0.73740844  0.46528283  0.37833600     0.86200
N299        N  0.73158470  0.46542431  0.41763290    -0.76300
C300        C  0.72548450  0.41308538  0.54907164     0.83700
N301        N  0.72166126  0.45111917  0.56233316    -0.74600
C302        C  0.71824277  0.45961353  0.60127465     0.86100
N303        N  0.71839552  0.42998087  0.62742610    -0.74500
C304        C  0.72231818  0.39191299  0.61469892     0.86200
N305        N  0.72578353  0.38329410  0.57547271    -0.76300
Zn306      Zn  0.65988572  0.62614910  0.70129476     1.49700
Zn307      Zn  0.70675087  0.70793073  0.70879001     1.49400
Zn308      Zn  0.69764864  0.66080315  0.62477223     1.49100
Zn309      Zn  0.62246803  0.70307112  0.66318768     1.49500
O310        O  0.67212108  0.67477642  0.67472151    -1.80600
O311        O  0.68248378  0.62674283  0.75587072    -0.71300
O312        O  0.76051052  0.71406114  0.68252510    -0.71100
O313        O  0.70440072  0.60172053  0.61704752    -0.70600
O314        O  0.71524524  0.68248517  0.76292101    -0.71300
O315        O  0.68118057  0.57790618  0.67249408    -0.70900
O316        O  0.75168280  0.68283880  0.62469677    -0.71500
O317        O  0.61409105  0.71104214  0.60519605    -0.70900
O318        O  0.68094692  0.76292759  0.71807164    -0.71600
O319        O  0.66678478  0.68206178  0.57774783    -0.71000
O320        O  0.62238413  0.75630161  0.68849821    -0.71500
O321        O  0.57522408  0.67477792  0.68190230    -0.71400
O322        O  0.60158049  0.61945589  0.70620185    -0.71200
C323        C  0.70322704  0.65017918  0.77647785     0.80600
C324        C  0.77295289  0.70241741  0.64875189     0.81100
C325        C  0.69708954  0.57290849  0.63900742     0.80100
C326        C  0.63402960  0.70110506  0.57502998     0.80400
C327        C  0.64679673  0.77656644  0.70833161     0.81600
C328        C  0.57183622  0.64140544  0.69765975     0.80600
C329        C  0.71270643  0.49982078  0.61452834    -0.09800
C330        C  0.70647810  0.53342877  0.62549437    -0.11300
C331        C  0.72562174  0.43434748  0.48051121    -0.12900
C332        C  0.72905053  0.40462318  0.50613568    -0.28100
H333        H  0.71951164  0.46411935  0.49165197     0.16100
H334        H  0.73503391  0.37458877  0.49574366     0.16600
C335        C  0.50148371  0.61433072  0.71115174    -0.09800
C336        C  0.53330253  0.62769531  0.70546320    -0.11300
C337        C  0.40361198  0.47015371  0.73784768    -0.12900
C338        C  0.43310642  0.49567230  0.73644619    -0.28100
H339        H  0.37328444  0.48037417  0.73345730     0.16100
H340        H  0.46315277  0.48439705  0.74050322     0.16600
C341        C  0.97323215  0.85189609  0.26265229    -0.09800
C342        C  0.00585457  0.83765360  0.26743518    -0.11300
C343        C  0.89098135  0.97053737  0.24460053    -0.12900
C344        C  0.92358473  0.99140501  0.23991991    -0.28100
H345        H  0.86200596  0.98497458  0.24363081     0.16100
H346        H  0.95222433  0.97622049  0.24017335     0.16600
C347        C  0.00064451  0.10328231  0.20870097    -0.09800
C348        C  0.03282451  0.11469271  0.20108673    -0.11300
C349        C  0.18428114  0.92500308  0.34211351    -0.09800
C350        C  0.19434579  0.95648948  0.35500292    -0.11300
C351        C  0.21489493  0.09474208  0.34187104    -0.09800
C352        C  0.21053965  0.11444852  0.31262150    -0.11300
C353        C  0.23723260  0.02855797  0.47083484    -0.12900
C354        C  0.23885138  0.05945949  0.49629843    -0.28100
H355        H  0.24203305  0.99902543  0.48216542     0.16100
H356        H  0.23352154  0.08926693  0.48593621     0.16600
C357        C  0.36110246  0.33429193  0.75670602    -0.09800
C358        C  0.34271936  0.30523392  0.76314951    -0.11300
C359        C  0.25820411  0.10856529  0.63320659    -0.09800
C360        C  0.26466891  0.12749534  0.66307042    -0.11300
C361        C  0.19644164  0.84041860  0.12729470    -0.09800
C362        C  0.18836352  0.82156999  0.15589816    -0.11300
C363        C  0.20291622  0.01332338  0.12000809    -0.09800
C364        C  0.20674673  0.97997471  0.10698675    -0.11300
C365        C  0.26497989  0.99460461  0.85794272    -0.09800
C366        C  0.27337467  0.02673860  0.84672178    -0.11300
C367        C  0.22944839  0.92009516  0.97069546    -0.12900
C368        C  0.22397237  0.88907744  0.99406434    -0.28100
H369        H  0.22791953  0.94954559  0.98385816     0.16100
H370        H  0.22549202  0.85922934  0.98192796     0.16600
C371        C  0.34341826  0.19556320  0.11880409    -0.09800
C372        C  0.31368137  0.19013273  0.13668028    -0.11300
C373        C  0.37282916  0.19617311  0.98060179    -0.09800
C374        C  0.36007232  0.19231760  0.94727549    -0.11300
C375        C  0.47887876  0.21940405  0.07750385    -0.12900
C376        C  0.50462387  0.22285268  0.04811529    -0.28100
H377        H  0.48813718  0.22429489  0.10796570     0.16100
H378        H  0.49438089  0.21829288  0.01789285     0.16600
C379        C  0.62888807  0.25029245  0.12230986    -0.09800
C380        C  0.65704257  0.25513038  0.14398811    -0.11300
C381        C  0.84132255  0.15419980  0.22790988    -0.09800
C382        C  0.86221283  0.12496821  0.23072020    -0.11300
C383        C  0.74936698  0.36042418  0.35539723    -0.09800
C384        C  0.75668382  0.33827825  0.32804695    -0.11300
C385        C  0.12599987  0.19401292  0.03035803    -0.09800
C386        C  0.11323092  0.20201293  0.99793644    -0.11300
C387        C  0.16726613  0.21134795  0.84165352    -0.09800
C388        C  0.13714530  0.21662229  0.85982084    -0.11300
C389        C  0.85911098  0.25109808  0.01733978    -0.09800
C390        C  0.84547047  0.25688015  0.04963591    -0.11300
C391        C  0.97687346  0.23088984  0.94090441    -0.12900
C392        C  0.00106952  0.23081051  0.90970734    -0.28100
H393        H  0.98959866  0.22565438  0.97000712     0.16100
H394        H  0.98930933  0.23628532  0.88028607     0.16600
C395        C  0.74522915  0.53373710  0.34455418    -0.09800
C396        C  0.74037980  0.50190937  0.35848510    -0.11300
C397        C  0.81247394  0.81258365  0.26374381    -0.09800
C398        C  0.83263830  0.84068630  0.25913759    -0.11300
C399        C  0.13056181  0.29826619  0.21123856    -0.09800
C400        C  0.11047957  0.32773508  0.21732920    -0.11300
C401        C  0.93738528  0.34008736  0.22166221    -0.09800
C402        C  0.97044851  0.35191946  0.22532019    -0.11300
C403        C  0.10906153  0.64616032  0.25258146    -0.09800
C404        C  0.08881589  0.61796420  0.24620532    -0.11300
C405        C  0.91613630  0.62338709  0.26211816    -0.09800
C406        C  0.94813458  0.60910095  0.25428674    -0.11300
C407        C  0.05676528  0.46442461  0.23025668    -0.12900
C408        C  0.02474282  0.48892670  0.23033466    -0.28100
H409        H  0.08612222  0.47615175  0.23280761     0.16100
H410        H  0.99572674  0.47639979  0.22764469     0.16600
C411        C  0.26699952  0.93608355  0.61873126    -0.09800
C412        C  0.26166476  0.96890536  0.60599030    -0.11300
C413        C  0.36037915  0.62419405  0.71608933    -0.09800
C414        C  0.33988239  0.65339196  0.70996157    -0.10900
C415        C  0.25729935  0.83525989  0.80944279    -0.09800
C416        C  0.25139499  0.85493045  0.83911649    -0.11300
C417        C  0.63128258  0.27433892  0.95006833    -0.09800
C418        C  0.61898039  0.26652561  0.98200190    -0.11300
C419        C  0.53252874  0.35049520  0.77260175    -0.09800
C420        C  0.49927897  0.36225247  0.76499754    -0.11300
C421        C  0.71572221  0.34228468  0.67233319    -0.09800
C422        C  0.72047525  0.36140729  0.64327227    -0.11300
C423        C  0.81730721  0.26395501  0.85575229    -0.09800
C424        C  0.84606641  0.25691523  0.87629758    -0.11300
C425        C  0.75128558  0.46453388  0.12492201    -0.09800
C426        C  0.75902261  0.43297225  0.13943619    -0.11300
C427        C  0.73434771  0.60576292  0.13266831    -0.09800
C428        C  0.73720158  0.62866061  0.16008327    -0.11300
C429        C  0.71307658  0.63841928  0.81604162    -0.09800
C430        C  0.71715876  0.61929186  0.84560301    -0.11300
C431        C  0.70810032  0.47991249  0.86673849    -0.09800
C432        C  0.70288667  0.44662070  0.85515470    -0.11300
C433        C  0.72564696  0.56742379  0.98059602    -0.12900
C434        C  0.72798895  0.53577180  0.00405717    -0.28100
H435        H  0.72725505  0.59703433  0.99315050     0.16100
H436        H  0.72710368  0.50636763  0.99086472     0.16600
C437        C  0.31909844  0.74044047  0.35232039    -0.09800
C438        C  0.28882852  0.74375289  0.33332696    -0.11300
C439        C  0.33846212  0.75808524  0.52560156    -0.09800
C440        C  0.34777314  0.75214937  0.49176502    -0.11300
C441        C  0.60322922  0.71824866  0.50528592    -0.09800
C442        C  0.61842328  0.71106406  0.53681410    -0.11300
C443        C  0.60864157  0.72093955  0.36397885    -0.09800
C444        C  0.63613867  0.71460255  0.34243580    -0.11300
C445        C  0.48186635  0.74148971  0.43222953    -0.12900
C446        C  0.45692004  0.73886301  0.40103954    -0.28100
H447        H  0.47000060  0.74671543  0.46152276     0.16100
H448        H  0.46807475  0.73335350  0.37152113     0.16600
C449        C  0.10271296  0.75708125  0.43924231    -0.09800
C450        C  0.09302016  0.75201386  0.47296291    -0.11300
C451        C  0.12826210  0.74854793  0.61152275    -0.09800
C452        C  0.15796829  0.75429995  0.63060059    -0.11300
C453        C  0.83967242  0.71588584  0.61459888    -0.09800
C454        C  0.81181236  0.71166475  0.63580135    -0.11300
C455        C  0.83992516  0.70851154  0.47284095    -0.09800
C456        C  0.82527689  0.70324042  0.44066482    -0.11300
C457        C  0.96397091  0.72627015  0.53990194    -0.12900
C458        C  0.99030832  0.73098105  0.56952102    -0.28100
H459        H  0.97427739  0.72625270  0.50969649     0.16100
H460        H  0.98099399  0.73063751  0.60002483     0.16600
C461        C  0.48234581  0.10819413  0.76461620    -0.09800
C462        C  0.44901416  0.11934596  0.77100493    -0.11300
C463        C  0.63905100  0.16248961  0.76962662    -0.09800
C464        C  0.62084328  0.13291073  0.76312120    -0.11300
C465        C  0.63383274  0.81583865  0.71958472    -0.09800
C466        C  0.61219051  0.84445768  0.72376396    -0.11300
C467        C  0.47130171  0.85514404  0.70537572    -0.09800
C468        C  0.43946698  0.84129634  0.69848814    -0.11300
C469        C  0.54240126  0.97438097  0.73295081    -0.12900
C470        C  0.57349200  0.99771590  0.73915207    -0.28100
H471        H  0.51287988  0.98763654  0.73260915     0.16100
H472        H  0.60333690  0.98530986  0.73891049     0.16600
loop_ 
_geom_bond_atom_site_label_1 
_geom_bond_atom_site_label_2 
_geom_bond_distance 
_geom_bond_site_symmetry_2 
_ccdc_geom_bond_type 
C1            N2   1.364       .  A
C1            N6   1.360       .  A
C1          C469   1.477       .  S
N2            C3   1.364       .  A
C3            N4   1.359       .  A
C3          C466   1.438       .  S
N4            C5   1.353       .  A
C5            N6   1.353       .  A
C5          C467   1.441       .  S
C7            N8   1.367       .  A
C7           N12   1.360       .  A
C7          C470   1.489   1_545  S
N8            C9   1.366       .  A
C9           N10   1.356       .  A
C9          C464   1.440       .  S
N10          C11   1.351       .  A
C11          N12   1.350       .  A
C11         C461   1.432       .  S
C13          N14   1.356       .  A
C13          N18   1.368       .  A
C13         C457   1.477       .  S
N14          C15   1.349       .  A
C15          N16   1.350       .  A
C15         C455   1.432       .  S
N16          C17   1.358       .  A
C17          N18   1.368       .  A
C17         C453   1.441       .  S
C19          N20   1.364       .  A
C19          N24   1.363       .  A
C19         C458   1.489   1_455  S
N20          C21   1.354       .  A
C21          N22   1.354       .  A
C21         C450   1.444       .  S
N22          C23   1.359       .  A
C23          N24   1.363       .  A
C23         C451   1.440       .  S
C25          N26   1.358       .  A
C25          N30   1.364       .  A
C25         C445   1.473       .  S
N26          C27   1.352       .  A
C27          N28   1.350       .  A
C27         C441   1.434       .  S
N28          C29   1.356       .  A
C29          N30   1.363       .  A
C29         C443   1.434       .  S
C31          N32   1.359       .  A
C31          N36   1.364       .  A
C31         C446   1.486       .  S
N32          C33   1.349       .  A
C33          N34   1.353       .  A
C33         C440   1.435       .  S
N34          C35   1.359       .  A
C35          N36   1.365       .  A
C35         C437   1.439       .  S
C37          N38   1.360       .  A
C37          N42   1.364       .  A
C37         C433   1.484       .  S
N38          C39   1.351       .  A
C39          N40   1.352       .  A
C39         C431   1.435       .  S
N40          C41   1.357       .  A
C41          N42   1.364       .  A
C41         C430   1.438       .  S
C43          N44   1.363       .  A
C43          N48   1.359       .  A
C43         C434   1.473       .  S
N44          C45   1.361       .  A
C45          N46   1.357       .  A
C45         C427   1.433       .  S
N46          C47   1.352       .  A
C47          N48   1.353       .  A
C47         C425   1.437       .  S
Zn49         O53   1.966       .  S
Zn49         O54   2.030       .  S
Zn49         O58   2.014       .  S
Zn49         O65   2.030       .  S
Zn50         O53   1.968       .  S
Zn50         O55   2.042       .  S
Zn50         O57   2.029       .  S
Zn50         O61   2.018       .  S
Zn51         O53   1.969       .  S
Zn51         O56   2.008       .  S
Zn51         O59   2.026       .  S
Zn51         O62   2.011       .  S
Zn52         O53   1.969       .  S
Zn52         O60   2.025       .  S
Zn52         O63   2.013       .  S
Zn52         O64   2.037       .  S
O54          C66   1.273       .  A
O55          C67   1.274       .  A
O56          C68   1.271       .  A
O57          C66   1.274       .  A
O58          C68   1.272       .  A
O59          C67   1.272       .  A
O60          C69   1.272       .  A
O61          C70   1.273       .  A
O62          C69   1.271       .  A
O63          C70   1.273       .  A
O64          C71   1.273       .  A
O65          C71   1.273       .  A
C66         C463   1.441       .  S
C67         C419   1.445       .  S
C68         C417   1.430       .  S
C69         C432   1.435       .  S
C70         C421   1.433       .  S
C71         C423   1.445       .  S
Zn72         O76   1.967       .  S
Zn72         O77   2.016       .  S
Zn72         O81   2.035       .  S
Zn72         O88   2.028       .  S
Zn73         O76   1.995       .  S
Zn73         O78   2.063       .  S
Zn73         O80   2.064       .  S
Zn73         O84   2.060       .  S
Zn74         O76   1.963       .  S
Zn74         O79   2.019       .  S
Zn74         O82   2.016       .  S
Zn74         O85   2.034       .  S
Zn75         O76   1.961       .  S
Zn75         O83   2.015       .  S
Zn75         O86   1.991       .  S
Zn75         O87   2.004       .  S
O77          C89   1.273       .  A
O78          C90   1.278       .  A
O79          C91   1.272       .  A
O80          C89   1.278       .  A
O81          C91   1.274       .  A
O82          C90   1.274       .  A
O83          C92   1.270       .  A
O84          C93   1.277       .  A
O85          C92   1.273       .  A
O86          C93   1.270       .  A
O87          C94   1.269       .  A
O88          C94   1.273       .  A
C89         C414   1.447       .  S
C90         C415   1.446       .  S
C91         C468   1.441       .  S
C92         C411   1.441       .  S
C93         C452   1.439       .  S
C94         C439   1.435       .  S
C95          N96   1.366       .  A
C95         N100   1.359   1_455  A
C95         C408   1.479       .  S
N96          C97   1.366       .  A
C97          N98   1.358       .  A
C97         C404   1.439       .  S
N98          C99   1.351   1_455  A
C99         N100   1.352       .  A
C99         C406   1.438       .  S
C101        N102   1.362       .  A
C101        N106   1.366       .  A
C101        C407   1.491       .  S
N102        C103   1.353       .  A
C103        N104   1.352       .  A
C103        C402   1.438   1_455  S
N104        C105   1.357       .  A
C105        N106   1.365       .  A
C105        C400   1.440       .  S
Zn107       O111   1.961       .  S
Zn107       O112   2.029       .  S
Zn107       O116   2.014       .  S
Zn107       O123   2.015       .  S
Zn108       O111   1.959       .  S
Zn108       O113   2.004       .  S
Zn108       O115   2.013       .  S
Zn108       O119   2.000       .  S
Zn109       O111   1.961       .  S
Zn109       O114   2.015       .  S
Zn109       O117   2.022       .  S
Zn109       O120   2.013       .  S
Zn110       O111   1.964       .  S
Zn110       O118   2.022       .  S
Zn110       O121   2.018       .  S
Zn110       O122   2.011       .  S
O112        C124   1.272       .  A
O113        C125   1.270       .  A
O114        C126   1.272       .  A
O115        C124   1.271       .  A
O116        C126   1.273       .  A
O117        C125   1.272       .  A
O118        C127   1.272       .  A
O119        C128   1.270       .  A
O120        C127   1.272       .  A
O121        C128   1.271       .  A
O122        C129   1.272       .  A
O123        C129   1.272       .  A
C124        C405   1.438       .  S
C125        C456   1.432       .  S
C126        C397   1.432       .  S
C127        C444   1.435       .  S
C128        C395   1.430       .  S
C129        C428   1.432       .  S
C130        N131   1.369       .  A
C130        N135   1.358       .  A
C130        C391   1.481       .  S
N131        C132   1.369       .  A
C132        N133   1.356       .  A
C132        C424   1.443       .  S
N133        C134   1.350       .  A
C134        N135   1.350       .  A
C134        C389   1.434   1_556  S
C136        N137   1.363       .  A
C136        N141   1.366       .  A
C136        C392   1.494       .  S
N137        C138   1.354       .  A
C138        N139   1.350       .  A
C138        C386   1.438       .  S
N139        C140   1.356       .  A
C140        N141   1.365       .  A
C140        C388   1.439       .  S
Zn142       O146   1.971       .  S
Zn142       O147   2.024       .  S
Zn142       O151   2.027       .  S
Zn142       O158   2.038       .  S
Zn143       O146   1.966       .  S
Zn143       O148   2.027       .  S
Zn143       O150   2.018       .  S
Zn143       O154   2.027       .  S
Zn144       O146   1.965       .  S
Zn144       O149   2.018       .  S
Zn144       O152   2.033       .  S
Zn144       O155   2.031       .  S
Zn145       O146   1.962       .  S
Zn145       O153   2.008       .  S
Zn145       O156   2.003       .  S
Zn145       O157   2.006       .  S
O147        C159   1.274       .  A
O148        C160   1.274       .  A
O149        C161   1.274       .  A
O150        C159   1.272       .  A
O151        C161   1.273       .  A
O152        C160   1.273       .  A
O153        C162   1.270       .  A
O154        C163   1.272       .  A
O155        C162   1.273       .  A
O156        C163   1.270       .  A
O157        C164   1.270       .  A
O158        C164   1.273       .  A
C159        C381   1.436       .  S
C160        C380   1.443       .  S
C161        C384   1.436       .  S
C162        C426   1.436       .  S
C163        C390   1.434       .  S
C164        C401   1.438       .  S
C165        N166   1.365       .  A
C165        N170   1.363       .  A
C165        C375   1.490       .  S
N166        C167   1.356       .  A
C167        N168   1.351       .  A
C167        C373   1.442   1_554  S
N168        C169   1.356       .  A
C169        N170   1.362       .  A
C169        C371   1.435       .  S
C171        N172   1.355       .  A
C171        N176   1.369       .  A
C171        C376   1.477       .  S
N172        C173   1.348       .  A
C173        N174   1.350       .  A
C173        C418   1.430   1_554  S
N174        C175   1.357       .  A
C175        N176   1.369       .  A
C175        C379   1.441       .  S
C177        N178   1.357       .  A
C177        N182   1.370       .  A
C177        C367   1.481       .  S
N178        C179   1.349       .  A
C179        N180   1.350       .  A
C179        C365   1.433       .  S
N180        C181   1.357       .  A
C181        N182   1.371       .  A
C181        C416   1.444       .  S
C183        N184   1.364       .  A
C183        N188   1.366       .  A
C183        C368   1.495   1_554  S
N184        C185   1.355       .  A
C185        N186   1.353       .  A
C185        C364   1.443       .  S
N186        C187   1.358       .  A
C187        N188   1.365       .  A
C187        C361   1.442       .  S
Zn189       O193   1.957       .  S
Zn189       O194   2.033       .  S
Zn189       O198   2.013       .  S
Zn189       O205   2.008       .  S
Zn190       O193   1.958       .  S
Zn190       O195   2.009       .  S
Zn190       O197   2.023       .  S
Zn190       O201   1.998       .  S
Zn191       O193   1.960       .  S
Zn191       O196   2.014       .  S
Zn191       O199   2.013       .  S
Zn191       O202   2.003       .  S
Zn192       O193   1.989       .  S
Zn192       O200   2.052       .  S
Zn192       O203   2.047       .  S
Zn192       O204   2.048       .  S
O194        C206   1.273       .  A
O195        C207   1.270       .  A
O196        C208   1.271       .  A
O197        C206   1.271       .  A
O198        C208   1.271       .  A
O199        C207   1.271       .  A
O200        C209   1.275       .  A
O201        C210   1.271       .  A
O202        C209   1.271       .  A
O203        C210   1.276       .  A
O204        C211   1.276       .  A
O205        C211   1.273       .  A
C206        C374   1.442       .  S
C207        C462   1.432       .  S
C208        C366   1.433       .  S
C209        C360   1.441       .  S
C210        C358   1.437       .  S
C211        C387   1.440       .  S
C212        N213   1.369       .  A
C212        N217   1.357   1_545  A
C212        C353   1.481       .  S
N213        C214   1.370       .  A
C214        N215   1.355       .  A
C214        C351   1.441       .  S
N215        C216   1.349   1_545  A
C216        N217   1.350       .  A
C216        C350   1.431       .  S
C218        N219   1.365       .  A
C218        N223   1.364       .  A
C218        C354   1.493       .  S
N219        C220   1.364       .  A
C220        N221   1.356       .  A
C220        C359   1.440       .  S
N221        C222   1.352       .  A
C222        N223   1.355       .  A
C222        C412   1.441   1_545  S
Zn224       O228   1.967       .  S
Zn224       O229   2.005       .  S
Zn224       O233   2.015       .  S
Zn224       O240   2.012       .  S
Zn225       O228   1.966       .  S
Zn225       O230   2.030       .  S
Zn225       O232   2.015       .  S
Zn225       O236   2.023       .  S
Zn226       O228   1.970       .  S
Zn226       O231   2.047       .  S
Zn226       O234   2.037       .  S
Zn226       O237   2.026       .  S
Zn227       O228   1.969       .  S
Zn227       O235   2.018       .  S
Zn227       O238   2.031       .  S
Zn227       O239   2.033       .  S
O229        C241   1.270       .  A
O230        C242   1.273       .  A
O231        C243   1.275       .  A
O232        C241   1.271       .  A
O233        C243   1.271       .  A
O234        C242   1.275       .  A
O235        C244   1.274       .  A
O236        C245   1.273       .  A
O237        C244   1.274       .  A
O238        C245   1.273       .  A
O239        C246   1.273       .  A
O240        C246   1.271       .  A
C241        C348   1.431       .  S
C242        C352   1.444       .  S
C243        C363   1.443       .  S
C244        C372   1.435       .  S
C245        C399   1.441       .  S
C246        C385   1.438       .  S
C247        N248   1.362       .  A
C247        N252   1.361       .  A
C247        C343   1.483       .  S
N248        C249   1.362       .  A
C249        N250   1.356       .  A
C249        C398   1.432       .  S
N250        C251   1.350       .  A
C251        N252   1.351       .  A
C251        C341   1.434       .  S
C253        N254   1.356       .  A
C253        N258   1.365       .  A
C253        C344   1.471   1_545  S
N254        C255   1.350       .  A
C255        N256   1.351       .  A
C255        C347   1.431   1_655  S
N256        C257   1.356       .  A
C257        N258   1.364       .  A
C257        C382   1.435       .  S
Zn259       O263   1.961       .  S
Zn259       O264   2.017       .  S
Zn259       O268   2.011       .  S
Zn259       O275   2.004       .  S
Zn260       O263   1.955       .  S
Zn260       O265   2.022       .  S
Zn260       O267   2.001       .  S
Zn260       O271   1.990       .  S
Zn261       O263   1.960       .  S
Zn261       O266   2.021       .  S
Zn261       O269   2.035       .  S
Zn261       O272   2.004       .  S
Zn262       O263   1.992       .  S
Zn262       O270   2.055       .  S
Zn262       O273   2.055       .  S
Zn262       O274   2.059       .  S
O264        C276   1.271       .  A
O265        C277   1.271       .  A
O266        C278   1.272       .  A
O267        C276   1.269       .  A
O268        C278   1.271       .  A
O269        C277   1.273       .  A
O270        C279   1.277       .  A
O271        C280   1.270       .  A
O272        C279   1.272       .  A
O273        C280   1.276       .  A
O274        C281   1.276       .  A
O275        C281   1.271       .  A
C276        C349   1.431       .  S
C277        C449   1.443       .  S
C278        C342   1.434       .  S
C279        C403   1.440       .  S
C280        C438   1.438       .  S
C281        C362   1.443       .  S
C282        N283   1.365       .  A
C282        N287   1.363       .  A
C282        C337   1.492       .  S
N283        C284   1.356       .  A
C284        N285   1.353       .  A
C284        C420   1.445       .  S
N285        C286   1.357       .  A
C286        N287   1.362       .  A
C286        C357   1.438       .  S
C288        N289   1.356       .  A
C288        N293   1.371       .  A
C288        C338   1.480       .  S
N289        C290   1.348       .  A
C290        N291   1.349       .  A
C290        C335   1.431       .  S
N291        C292   1.357       .  A
C292        N293   1.371       .  A
C292        C413   1.444       .  S
C294        N295   1.365       .  A
C294        N299   1.356       .  A
C294        C331   1.471       .  S
N295        C296   1.364       .  A
C296        N297   1.357       .  A
C296        C383   1.435       .  S
N297        C298   1.350       .  A
C298        N299   1.349       .  A
C298        C396   1.431       .  S
C300        N301   1.361       .  A
C300        N305   1.362       .  A
C300        C332   1.484       .  S
N301        C302   1.351       .  A
C302        N303   1.352       .  A
C302        C329   1.436       .  S
N303        C304   1.357       .  A
C304        N305   1.362       .  A
C304        C422   1.433       .  S
Zn306       O310   1.952       .  S
Zn306       O311   1.992       .  S
Zn306       O315   2.011       .  S
Zn306       O322   2.009       .  S
Zn307       O310   1.992       .  S
Zn307       O312   2.060       .  S
Zn307       O314   2.054       .  S
Zn307       O318   2.058       .  S
Zn308       O310   1.957       .  S
Zn308       O313   2.023       .  S
Zn308       O316   2.002       .  S
Zn308       O319   2.026       .  S
Zn309       O310   1.953       .  S
Zn309       O317   2.004       .  S
Zn309       O320   1.984       .  S
Zn309       O321   2.010       .  S
O311        C323   1.270       .  A
O312        C324   1.277       .  A
O313        C325   1.272       .  A
O314        C323   1.276       .  A
O315        C325   1.270       .  A
O316        C324   1.272       .  A
O317        C326   1.269       .  A
O318        C327   1.276       .  A
O319        C326   1.272       .  A
O320        C327   1.269       .  A
O321        C328   1.269       .  A
O322        C328   1.270       .  A
C323        C429   1.438       .  S
C324        C454   1.442       .  S
C325        C330   1.435       .  S
C326        C442   1.434       .  S
C327        C465   1.437       .  S
C328        C336   1.431       .  S
C329        C330   1.206       .  T
C331        C332   1.344       .  D
C331        H333   1.087       .  S
C332        H334   1.086       .  S
C335        C336   1.204       .  T
C337        C338   1.345       .  D
C337        H339   1.086       .  S
C338        H340   1.086       .  S
C341        C342   1.205   1_655  T
C343        C344   1.344       .  D
C343        H345   1.086       .  S
C344        H346   1.087       .  S
C347        C348   1.203       .  T
C349        C350   1.203       .  T
C351        C352   1.211       .  T
C353        C354   1.347       .  D
C353        H355   1.086   1_545  S
C354        H356   1.086       .  S
C357        C358   1.207       .  T
C359        C360   1.209       .  T
C361        C362   1.210       .  T
C363        C364   1.210   1_545  T
C365        C366   1.205   1_565  T
C367        C368   1.347       .  D
C367        H369   1.086       .  S
C368        H370   1.086       .  S
C371        C372   1.206       .  T
C373        C374   1.210       .  T
C375        C376   1.344       .  D
C375        H377   1.086       .  S
C376        H378   1.086       .  S
C379        C380   1.210       .  T
C381        C382   1.206       .  T
C383        C384   1.206       .  T
C385        C386   1.208   1_554  T
C387        C388   1.209       .  T
C389        C390   1.205       .  T
C391        C392   1.348   1_655  D
C391        H393   1.086       .  S
C392        H394   1.086   1_455  S
C395        C396   1.203       .  T
C397        C398   1.204       .  T
C399        C400   1.209       .  T
C401        C402   1.207       .  T
C403        C404   1.209       .  T
C405        C406   1.207       .  T
C407        C408   1.349       .  D
C407        H409   1.086       .  S
C408        H410   1.086   1_455  S
C411        C412   1.209       .  T
C413        C414   1.213       .  T
C415        C416   1.212       .  T
C417        C418   1.203       .  T
C419        C420   1.212       .  T
C421        C422   1.205       .  T
C423        C424   1.211       .  T
C425        C426   1.207       .  T
C427        C428   1.204       .  T
C429        C430   1.208       .  T
C431        C432   1.206       .  T
C433        C434   1.347   1_556  D
C433        H435   1.086       .  S
C434        H436   1.086   1_554  S
C437        C438   1.208       .  T
C439        C440   1.206       .  T
C441        C442   1.205       .  T
C443        C444   1.205       .  T
C445        C446   1.348       .  D
C445        H447   1.086       .  S
C446        H448   1.086       .  S
C449        C450   1.211       .  T
C451        C452   1.209       .  T
C453        C454   1.210       .  T
C455        C456   1.204       .  T
C457        C458   1.345       .  D
C457        H459   1.087       .  S
C458        H460   1.086       .  S
C461        C462   1.204       .  T
C463        C464   1.209       .  T
C465        C466   1.207       .  T
C467        C468   1.209       .  T
C469        C470   1.350       .  D
C469        H471   1.086       .  S
C470        H472   1.086       .  S
