geometry optimzed in LAMMPS
_audit_creation_date              2020-11-30 
_audit_creation_method            'lammps2cif' 
_symmetry_space_group_name_H-M    'P1' 
_symmetry_Int_Tables_number       1 
_symmetry_cell_setting            triclinic 
loop_ 
_symmetry_equiv_pos_as_xyz 
  x,y,z 
_cell_length_a                    40.91821017 
_cell_length_b                    40.85258815380237 
_cell_length_c                    44.86658258745423 
_cell_angle_alpha                 90.02195988349325 
_cell_angle_beta                  89.84299267216963 
_cell_angle_gamma                 90.12782361827416 
loop_ 
_atom_site_label 
_atom_site_type_symbol 
_atom_site_fract_x 
_atom_site_fract_y 
_atom_site_fract_z 
_atom_site_charge 
O1          O  0.92662060  0.26591382  0.50484225    -0.56900
C2          C  0.99385371  0.20054551  0.04688163     0.75700
O3          O  0.97398712  0.30013877  0.08462839    -0.58000
C4          C  0.90418629  0.28499427  0.51365042     0.75700
C5          C  0.91008783  0.22037188  0.10030732     0.78100
Cd6        Cd  0.94882350  0.25423031  0.05582764     1.37500
O7          O  0.97232503  0.20702857  0.52736814    -0.56900
O8          O  0.91566062  0.20887021  0.07462443    -0.55700
C9          C  0.99602499  0.30606173  0.06540535     0.78100
O10         O  0.92128223  0.24876442  0.10563906    -0.58100
O11         O  0.99448494  0.21927181  0.06932892    -0.56500
O12         O  0.90164956  0.28846834  0.04156865    -0.56500
O13         O  0.99561000  0.28827045  0.04235056    -0.55700
O14         O  0.94021950  0.21886411  0.29318929    -0.56900
C15         C  0.01148821  0.29306654  0.26699040     0.75700
O16         O  0.99770346  0.20797848  0.20997887    -0.58000
C17         C  0.91722954  0.20501694  0.27890715     0.75700
C18         C  0.91998427  0.28245395  0.21795270     0.78100
Cd19       Cd  0.96695127  0.24189691  0.24786602     1.37500
O20         O  0.99782865  0.27451856  0.28604315    -0.56900
O21         O  0.92435708  0.28277134  0.24587308    -0.55700
C22         C  0.01067075  0.18971076  0.22957665     0.78100
O23         O  0.93819641  0.26325500  0.20295874    -0.58100
O24         O  0.00453918  0.28753945  0.24000353    -0.56500
O25         O  0.91785498  0.20802560  0.25084199    -0.56500
O26         O  0.00318256  0.19598061  0.25628981    -0.55700
O27         O  0.75179885  0.46812138  0.13579446    -0.56900
C28         C  0.67885634  0.53881579  0.10576118     0.75700
O29         O  0.76697188  0.51585872  0.05071984    -0.58000
C30         C  0.76739487  0.44590293  0.12199342     0.75700
C31         C  0.68637419  0.44610304  0.06030201     0.78100
Cd32       Cd  0.72902672  0.49254148  0.08906375     1.37500
O33         O  0.69356339  0.52200015  0.12543744    -0.56900
O34         O  0.68404147  0.45383345  0.08753542    -0.55700
C35         C  0.77920962  0.53707046  0.06816742     0.78100
O36         O  0.70876991  0.46035430  0.04544485    -0.58100
O37         O  0.68747922  0.53369591  0.07903855    -0.56500
O38         O  0.76562293  0.44637955  0.09389478    -0.56500
O39         O  0.76787124  0.53772183  0.09440989    -0.55700
O40         O  0.73324914  0.44127521  0.39251585    -0.56900
C41         C  0.66997204  0.51420975  0.35168447     0.75700
O42         O  0.76749391  0.49507957  0.31419291    -0.58000
C43         C  0.75723525  0.42439257  0.38318129     0.75700
C44         C  0.69082721  0.42378177  0.30335751     0.78100
Cd45       Cd  0.72304877  0.46841966  0.34354171     1.37500
O46         O  0.68271412  0.49987621  0.37392402    -0.56900
O47         O  0.68373945  0.42568156  0.33082427    -0.55700
C48         C  0.77424991  0.51574382  0.33443689     0.78100
O49         O  0.71379297  0.44230578  0.29436851    -0.58100
O50         O  0.68126341  0.50677307  0.32630835    -0.56500
O51         O  0.76413991  0.42713273  0.35579898    -0.56500
O52         O  0.75752387  0.51388533  0.35808086    -0.55700
O53         O  0.74998237  0.05599718  0.22295623    -0.56900
C54         C  0.68890892  0.98108012  0.25789834     0.75700
O55         O  0.78783944  0.00165817  0.30075605    -0.58000
C56         C  0.77508785  0.07144481  0.23202260     0.75700
C57         C  0.70879792  0.06826764  0.31228951     0.78100
Cd58       Cd  0.74221737  0.02550698  0.27074649     1.37500
O59         O  0.69732623  0.00262593  0.23892384    -0.56900
O60         O  0.71495821  0.07642161  0.28573204    -0.55700
C61         C  0.79685634  0.98161064  0.28074615     0.78100
O62         O  0.71935482  0.04055742  0.32033894    -0.58100
O63         O  0.70533239  0.98049161  0.28165284    -0.56500
O64         O  0.78439677  0.06505872  0.25828428    -0.56500
O65         O  0.78064305  0.98233469  0.25675635    -0.55700
O66         O  0.73919069  0.03850820  0.37762416    -0.56900
C67         C  0.66281813  0.97725433  0.41785020     0.75700
O68         O  0.75895301  0.99721813  0.96037803    -0.58000
C69         C  0.75146161  0.06524880  0.38661440     0.75700
C70         C  0.68430601  0.07116927  0.96202510     0.78100
Cd71       Cd  0.71712265  0.02209612  0.42698656     1.37500
O72         O  0.67303409  0.99561924  0.39695078    -0.56900
O73         O  0.67593643  0.06355634  0.43574565    -0.55700
C74         C  0.76977710  0.97748517  0.44079862     0.78100
O75         O  0.70818443  0.05531520  0.97293644    -0.58100
O76         O  0.67743283  0.98025173  0.44254964    -0.56500
O77         O  0.74705642  0.07210373  0.41376323    -0.56500
O78         O  0.75627750  0.97895468  0.41556560    -0.55700
O79         O  0.53147246  0.26710044  0.17164612    -0.56900
C80         C  0.45989144  0.20682633  0.13242686     0.75700
O81         O  0.46835288  0.30015502  0.09377812    -0.58000
C82         C  0.54780358  0.29210721  0.16378003     0.75700
C83         C  0.54556714  0.22758711  0.08204365     0.78100
Cd84       Cd  0.50291570  0.26117079  0.12302090     1.37500
O85         O  0.47783122  0.21758410  0.15335532    -0.56900
O86         O  0.53718376  0.21634819  0.10714518    -0.55700
C87         C  0.45271416  0.31038385  0.11644728     0.78100
O88         O  0.53541382  0.25608907  0.07560391    -0.58100
O89         O  0.46155631  0.22204350  0.10792420    -0.56500
O90         O  0.54390488  0.30154734  0.13716098    -0.56500
O91         O  0.46098755  0.29837636  0.14126998    -0.55700
O92         O  0.51504584  0.22054247  0.39466763    -0.56900
C93         C  0.43457280  0.28633497  0.41813020     0.75700
O94         O  0.45489584  0.20510503  0.47473582    -0.58000
C95         C  0.53753254  0.20784751  0.41037053     0.75700
C96         C  0.52382161  0.28795345  0.47009140     0.78100
Cd97       Cd  0.48405219  0.24132665  0.43852443     1.37500
O98         O  0.45550744  0.27463154  0.40008489    -0.56900
O99         O  0.51852779  0.28924971  0.44235905    -0.55700
C100        C  0.44504809  0.18513323  0.45494491     0.78100
O101        O  0.50993912  0.26467185  0.48413917    -0.58100
O102        O  0.43636221  0.27627805  0.44475443    -0.56500
O103        O  0.53497761  0.21102421  0.43833190    -0.56500
O104        O  0.45347898  0.19126197  0.42837965    -0.55700
O105        O  0.21625274  0.56154853  0.14169234    -0.56900
C106        C  0.27594218  0.48278412  0.10607023     0.75700
O107        O  0.18152983  0.49964580  0.06379176    -0.58000
C108        C  0.18954830  0.57442900  0.13344716     0.75700
C109        C  0.25827007  0.57058780  0.05471447     0.78100
Cd110      Cd  0.22327150  0.52812259  0.09516026     1.37500
O111        O  0.25919087  0.49380714  0.12773292    -0.56900
O112        O  0.26466193  0.56854787  0.08224980    -0.55700
C113        C  0.17261899  0.47992512  0.08415454     0.78100
O114        O  0.23413692  0.55373374  0.04558974    -0.58100
O115        O  0.26835722  0.49300497  0.08043714    -0.56500
O116        O  0.17967629  0.56670262  0.10769471    -0.56500
O117        O  0.18728282  0.48283247  0.10880221    -0.55700
O118        O  0.25073245  0.54079299  0.29509949    -0.56900
C119        C  0.17594832  0.46985798  0.31612571     0.75700
O120        O  0.25765546  0.48276220  0.37957943    -0.58000
C121        C  0.27240283  0.55608985  0.30980754     0.75700
C122        C  0.18626430  0.55972520  0.36746101     0.78100
Cd123      Cd  0.22725787  0.51152127  0.33889656     1.37500
O124        O  0.19772907  0.48098977  0.29858857    -0.56900
O125        O  0.19024388  0.55805052  0.33952415    -0.55700
C126        C  0.27017206  0.46148076  0.36236786     0.78100
O127        O  0.20187854  0.53890789  0.38289411    -0.58100
O128        O  0.17824787  0.47829360  0.34315100    -0.56500
O129        O  0.27339552  0.54988693  0.33743813    -0.56500
O130        O  0.26290521  0.46396258  0.33507344    -0.55700
O131        O  0.44495546  0.74161036  0.23195719    -0.56900
C132        C  0.51603365  0.81357408  0.20736340     0.75700
O133        O  0.49613500  0.72829770  0.14692626    -0.58000
C134        C  0.43060855  0.71861790  0.21810220     0.75700
C135        C  0.42294135  0.80467306  0.15628140     0.78100
Cd136      Cd  0.47120931  0.76425623  0.18615925     1.37500
O137        O  0.49766812  0.79843126  0.22560325    -0.56900
O138        O  0.42571194  0.80318835  0.18430641    -0.55700
C139        C  0.51791813  0.71670100  0.16405051     0.78100
O140        O  0.44268670  0.78704488  0.14144595    -0.58100
O141        O  0.51271622  0.80617385  0.18014563    -0.56500
O142        O  0.43497956  0.71752109  0.19023288    -0.56500
O143        O  0.51816289  0.72769632  0.19041008    -0.55700
O144        O  0.42874698  0.75367633  0.33159032    -0.56900
C145        C  0.49657695  0.68969823  0.37226649     0.75700
O146        O  0.47415828  0.78587547  0.41425170    -0.58000
C147        C  0.40480613  0.77096357  0.34014067     0.75700
C148        C  0.40698280  0.70533024  0.42190987     0.78100
Cd149      Cd  0.44961322  0.74146447  0.38230158     1.37500
O150        O  0.47986501  0.70128178  0.35094576    -0.56900
O151        O  0.41480025  0.69519864  0.39619682    -0.55700
C152        C  0.49365216  0.79621341  0.39429137     0.78100
O153        O  0.41828737  0.73311201  0.42944849    -0.58100
O154        O  0.49110845  0.70175942  0.39778601    -0.56500
O155        O  0.40031242  0.77276355  0.36797909    -0.56500
O156        O  0.49254161  0.78112485  0.36974116    -0.55700
O157        O  0.22506776  0.96435985  0.12869938    -0.56900
C158        C  0.29583197  0.02598816  0.16662614     0.75700
O159        O  0.20632497  0.00983441  0.21423338    -0.58000
C160        C  0.20670179  0.94158133  0.13822647     0.75700
C161        C  0.27574231  0.93047337  0.21516206     0.78100
Cd162      Cd  0.24396611  0.98017488  0.17905723     1.37500
O163        O  0.28828632  0.00443381  0.14746472    -0.56900
O164        O  0.28066515  0.93303440  0.18737666    -0.55700
C165        C  0.19032703  0.02383649  0.19364916     0.78100
O166        O  0.25578943  0.95081871  0.22641327    -0.58100
O167        O  0.28033697  0.02507264  0.19099325    -0.56500
O168        O  0.20694271  0.93597577  0.16595768    -0.56500
O169        O  0.19923431  0.01744335  0.16731388    -0.55700
O170        O  0.20192688  0.94451880  0.45911002    -0.56900
C171        C  0.27152831  0.01307628  0.48943374     0.75700
O172        O  0.16975740  0.00031796  0.03696615    -0.58000
C173        C  0.18189235  0.92461377  0.47099575     0.75700
C174        C  0.24876942  0.93492276  0.04937989     0.78100
Cd175      Cd  0.21455358  0.97466209  0.50649188     1.37500
O176        O  0.25331458  0.00045841  0.46962025    -0.56900
O177        O  0.24533905  0.92655949  0.52242285    -0.55700
C178        C  0.16481707  0.02377840  0.51904502     0.78100
O179        O  0.23482651  0.96122586  0.05736599    -0.58100
O180        O  0.26355521  0.00709013  0.51610281    -0.56500
O181        O  0.17666400  0.92866145  0.49857502    -0.56500
O182        O  0.18224533  0.02388537  0.49576595    -0.55700
O183        O  0.02390095  0.78139803  0.04543887    -0.56900
C184        C  0.95269611  0.70630212  0.01943252     0.75700
O185        O  0.96243998  0.79776859  0.46777624    -0.58000
C186        C  0.03839179  0.80427543  0.03136776     0.75700
C187        C  0.03795948  0.72630268  0.46351160     0.78100
Cd188      Cd  0.99317338  0.76124572  0.00130383     1.37500
O189        O  0.97054566  0.72108702  0.03830174    -0.56900
O190        O  0.04113861  0.72769822  0.99152999    -0.55700
C191        C  0.94437870  0.80973085  0.98804509     0.78100
O192        O  0.01429194  0.74217470  0.45244467    -0.58100
O193        O  0.95402996  0.71713794  0.99305811    -0.56500
O194        O  0.03180454  0.80659672  0.00392349    -0.56500
O195        O  0.94890150  0.79883419  0.01409908    -0.55700
O196        O  0.01782413  0.75247369  0.36284671    -0.56900
C197        C  0.95233176  0.68731024  0.31446768     0.75700
O198        O  0.98179323  0.78871733  0.28213859    -0.58000
C199        C  0.04579552  0.76337100  0.35566698     0.75700
C200        C  0.04591448  0.71002527  0.26918350     0.78100
Cd201      Cd  0.00076747  0.73952652  0.31072462     1.37500
O202        O  0.97190775  0.69322222  0.33569386    -0.56900
O203        O  0.04056855  0.69863065  0.29501078    -0.55700
C204        C  0.96245994  0.79875734  0.30231295     0.78100
O205        O  0.02975309  0.73538749  0.26215218    -0.58100
O206        O  0.95534738  0.70552230  0.29184848    -0.56500
O207        O  0.05335762  0.76109316  0.32844434    -0.56500
O208        O  0.96135617  0.78153211  0.32568907    -0.55700
C209        C  0.13643157  0.84500775  0.45642592    -0.01100
C210        C  0.13188344  0.84551283  0.42532621     0.07500
C211        C  0.14526378  0.87152001  0.40878528    -0.07100
C212        C  0.16219073  0.89723252  0.42283222     0.04900
C213        C  0.16555421  0.89749728  0.45426138    -0.14300
C214        C  0.15276546  0.87090014  0.47057704    -0.07600
C215        C  0.11102014  0.82066471  0.41000736     0.05900
C216        C  0.07749621  0.81962935  0.41670567    -0.08700
C217        C  0.05604545  0.79962745  0.40051695     0.00900
C218        C  0.06807662  0.77985990  0.37710518     0.00700
C219        C  0.10193447  0.77956409  0.37149481    -0.12300
C220        C  0.12335428  0.79971107  0.38767995     0.01200
C221        C  0.02149509  0.80247816  0.40641631     0.40500
C222        C  0.15780949  0.79871694  0.38077912     0.37100
C223        C  0.12511858  0.81772839  0.47415001     0.36900
C224        C  0.17479062  0.92336865  0.40441790     0.37600
N225        N  0.99371959  0.80490442  0.41070109    -0.43200
N226        N  0.18543013  0.79781768  0.37523305    -0.43600
N227        N  0.18487253  0.94416928  0.38946383    -0.41000
N228        N  0.11615422  0.79572811  0.48823106    -0.42400
H229        H  0.15572032  0.87012660  0.49458810     0.13800
H230        H  0.14178320  0.87211377  0.38483289     0.10200
H231        H  0.06780573  0.83571901  0.43362048     0.11300
H232        H  0.11156926  0.76435089  0.35376521     0.17100
C233        C  0.09593752  0.83928518  0.08953101    -0.01100
C234        C  0.11032462  0.86606682  0.07441346     0.07500
C235        C  0.09986479  0.87332613  0.04543746    -0.07100
C236        C  0.07566206  0.85455473  0.03144514     0.04900
C237        C  0.06226602  0.82672550  0.04602611    -0.14300
C238        C  0.07248597  0.81981931  0.07522883    -0.07600
C239        C  0.13642520  0.88649811  0.08837946     0.05900
C240        C  0.16437926  0.87101167  0.09979074    -0.08700
C241        C  0.18803888  0.88874710  0.11548085     0.00900
C242        C  0.18495923  0.92287903  0.11847117     0.00700
C243        C  0.15812690  0.93880615  0.10567124    -0.12300
C244        C  0.13357280  0.92089388  0.09118935     0.01200
C245        C  0.21481165  0.87136749  0.12909973     0.40500
C246        C  0.10472373  0.93809118  0.08138694     0.37100
C247        C  0.10430088  0.83161575  0.11998936     0.36900
C248        C  0.06460056  0.86536960  0.00256317     0.37600
N249        N  0.23619444  0.85755115  0.14024800    -0.43200
N250        N  0.08154989  0.95186959  0.07368563    -0.43600
N251        N  0.05575610  0.87461138  0.97959109    -0.41000
N252        N  0.11107462  0.82547760  0.14437884    -0.42400
H253        H  0.06219107  0.79902126  0.08703697     0.13800
H254        H  0.11064903  0.89390640  0.03364511     0.10200
H255        H  0.16718187  0.84477439  0.09729264     0.11300
H256        H  0.15536535  0.96500346  0.10857483     0.17100
C257        C  0.33096323  0.81332970  0.30678621    -0.01100
C258        C  0.34513682  0.83109633  0.28307540     0.07500
C259        C  0.37859151  0.82720974  0.27707462    -0.07100
C260        C  0.39806601  0.80675541  0.29472362     0.04900
C261        C  0.38413070  0.78963664  0.31898817    -0.14300
C262        C  0.35047433  0.79299744  0.32465217    -0.07600
C263        C  0.32613147  0.85560456  0.26560366     0.05900
C264        C  0.31553012  0.88432440  0.27979412    -0.08700
C265        C  0.29890819  0.90882161  0.26401228     0.00900
C266        C  0.29256094  0.90488081  0.23321478     0.00700
C267        C  0.30311153  0.87593885  0.21910250    -0.12300
C268        C  0.31959260  0.85139906  0.23500296     0.01200
C269        C  0.29004727  0.93831347  0.27978965     0.40500
C270        C  0.32907354  0.82181711  0.21965454     0.37100
C271        C  0.29641788  0.81560037  0.31306570     0.36900
C272        C  0.43281965  0.80603466  0.28903890     0.37600
N273        N  0.28307472  0.96197272  0.29247474    -0.43200
N274        N  0.33674911  0.79809082  0.20742025    -0.43600
N275        N  0.46073860  0.80553992  0.28490842    -0.41000
N276        N  0.26867989  0.81746644  0.31785850    -0.42400
H277        H  0.33951560  0.78002092  0.34315920     0.13800
H278        H  0.38970469  0.84105064  0.25948349     0.10200
H279        H  0.32081177  0.88785835  0.30325088     0.11300
H280        H  0.29819806  0.87228820  0.19559108     0.17100
C281        C  0.36445486  0.83769833  0.09781366    -0.01100
C282        C  0.34655145  0.86150419  0.11396704     0.07500
C283        C  0.35497348  0.86730033  0.14380648    -0.07100
C284        C  0.38076479  0.85050885  0.15739214     0.04900
C285        C  0.39746928  0.82538502  0.14182243    -0.14300
C286        C  0.38915722  0.81963070  0.11190259    -0.07600
C287        C  0.31944048  0.88081359  0.10006113     0.05900
C288        C  0.29429814  0.86418970  0.08496346    -0.08700
C289        C  0.27011413  0.88131350  0.06936544     0.00900
C290        C  0.26994369  0.91584235  0.06962099     0.00700
C291        C  0.29349872  0.93252661  0.08648668    -0.12300
C292        C  0.31842645  0.91547864  0.10121006     0.01200
C293        C  0.24568163  0.86290860  0.55328301     0.40500
C294        C  0.34377145  0.93435933  0.11557817     0.37100
C295        C  0.35879855  0.83202493  0.06647415     0.36900
C296        C  0.39087687  0.86144766  0.18651576     0.37600
N297        N  0.22607986  0.84818749  0.54039649    -0.43200
N298        N  0.36404923  0.94950349  0.12712457    -0.43600
N299        N  0.39917339  0.87103299  0.20954844    -0.41000
N300        N  0.35433560  0.82749221  0.54134932    -0.42400
H301        H  0.40208987  0.80099579  0.09933425     0.13800
H302        H  0.34170527  0.88558627  0.15650986     0.10200
H303        H  0.29396411  0.83764109  0.08478983     0.11300
H304        H  0.29371279  0.95909278  0.08656158     0.17100
C305        C  0.13536082  0.63692966  0.37397571    -0.01100
C306        C  0.12387652  0.63539922  0.40355806     0.07500
C307        C  0.13223521  0.60834904  0.42126360    -0.07100
C308        C  0.15225592  0.58329522  0.41017345     0.04900
C309        C  0.16458102  0.58515620  0.38071946    -0.14300
C310        C  0.15554279  0.61204765  0.36288680    -0.07600
C311        C  0.10319522  0.66164477  0.41671790     0.05900
C312        C  0.07152573  0.66681668  0.40569028    -0.08700
C313        C  0.05016818  0.68881572  0.41977897     0.00900
C314        C  0.06060697  0.70627998  0.44525623     0.00700
C315        C  0.09276810  0.70206573  0.45539972    -0.12300
C316        C  0.11398308  0.68002100  0.44143320     0.01200
C317        C  0.01691249  0.69077410  0.40928711     0.40500
C318        C  0.14660830  0.67628059  0.45313789     0.37100
C319        C  0.12739954  0.66412939  0.35477850     0.36900
C320        C  0.15866015  0.55563640  0.42928745     0.37600
N321        N  0.99011961  0.69223873  0.40121764    -0.43200
N322        N  0.17272504  0.67316384  0.46253889    -0.43600
N323        N  0.16349343  0.53349307  0.44472952    -0.41000
N324        N  0.12100202  0.68586987  0.33934362    -0.42400
H325        H  0.16450141  0.61389986  0.34021714     0.13800
H326        H  0.12289962  0.60676328  0.44382978     0.10200
H327        H  0.06300734  0.65255264  0.38685113     0.11300
H328        H  0.10115553  0.71550542  0.47479060     0.17100
C329        C  0.34306515  0.61608751  0.30245270    -0.01100
C330        C  0.33997306  0.62730098  0.27290229     0.07500
C331        C  0.31499723  0.61436918  0.25497334    -0.07100
C332        C  0.29289953  0.59102014  0.26614459     0.04900
C333        C  0.29546482  0.58021294  0.29607019    -0.14300
C334        C  0.32078602  0.59313790  0.31381318    -0.07600
C335        C  0.36361887  0.65106150  0.25972688     0.05900
C336        C  0.38299809  0.64088225  0.23564271    -0.08700
C337        C  0.40561383  0.66215254  0.22237939     0.00900
C338        C  0.40915072  0.69450573  0.23322046     0.00700
C339        C  0.39025217  0.70451749  0.25772357    -0.12300
C340        C  0.36729678  0.68330255  0.27073264     0.01200
C341        C  0.42547250  0.64978738  0.19819636     0.40500
C342        C  0.34685733  0.69569077  0.29443904     0.37100
C343        C  0.36972532  0.62680449  0.32114812     0.36900
C344        C  0.26801529  0.57879036  0.24625073     0.37600
N345        N  0.44144478  0.63989714  0.17887188    -0.43200
N346        N  0.33052202  0.70577551  0.31341284    -0.43600
N347        N  0.24819402  0.56899527  0.23017167    -0.41000
N348        N  0.39118051  0.63550098  0.33594855    -0.42400
H349        H  0.32358437  0.58498612  0.33665443     0.13800
H350        H  0.31281130  0.62255646  0.23207446     0.10200
H351        H  0.38054766  0.61607685  0.22727552     0.11300
H352        H  0.39250670  0.72937204  0.26601430     0.17100
C353        C  0.11237227  0.65233772  0.24241400    -0.01100
C354        C  0.11420216  0.65923420  0.21166463     0.07500
C355        C  0.09444582  0.68410608  0.19988831    -0.07100
C356        C  0.07276441  0.70176931  0.21810429     0.04900
C357        C  0.06993636  0.69401037  0.24878523    -0.14300
C358        C  0.09033763  0.66948548  0.26051815    -0.07600
C359        C  0.13436119  0.63894612  0.19104509     0.05900
C360        C  0.11824029  0.61845442  0.17077659    -0.08700
C361        C  0.13573918  0.59756558  0.15183918     0.00900
C362        C  0.17032493  0.59685584  0.15289097     0.00700
C363        C  0.18651478  0.61771392  0.17300513    -0.12300
C364        C  0.16885815  0.63887241  0.19179756     0.01200
C365        C  0.11736642  0.57593086  0.13265926     0.40500
C366        C  0.18654861  0.66068105  0.21130632     0.37100
C367        C  0.13211434  0.62708475  0.25583331     0.36900
C368        C  0.05351752  0.72722616  0.20444462     0.37600
N369        N  0.10265049  0.55851323  0.11736858    -0.43200
N370        N  0.20061682  0.67823695  0.22696506    -0.43600
N371        N  0.03827647  0.74773876  0.19343018    -0.41000
N372        N  0.14804560  0.60704915  0.26675396    -0.42400
H373        H  0.08892274  0.66332632  0.28398948     0.13800
H374        H  0.09577614  0.68951076  0.17624911     0.10200
H375        H  0.09173062  0.61827442  0.17022182     0.11300
H376        H  0.21300017  0.61773234  0.17384112     0.17100
C377        C  0.33207855  0.61740999  0.02641546    -0.01100
C378        C  0.32135959  0.62936414  0.99871563     0.07500
C379        C  0.28969284  0.62173517  0.98896948    -0.07100
C380        C  0.26859958  0.60249894  0.00650877     0.04900
C381        C  0.27906125  0.59099138  0.03467394    -0.14300
C382        C  0.31092631  0.59875799  0.04418745    -0.07600
C383        C  0.34318556  0.64922912  0.47934032     0.05900
C384        C  0.36438382  0.63316112  0.45966048    -0.08700
C385        C  0.38553693  0.65090903  0.44106168     0.00900
C386        C  0.38565515  0.68558208  0.44193127     0.00700
C387        C  0.36475210  0.70157620  0.46212679    -0.12300
C388        C  0.34354563  0.68370441  0.48067196     0.01200
C389        C  0.40776655  0.63279034  0.42223960     0.40500
C390        C  0.32240368  0.70116628  0.00095403     0.37100
C391        C  0.36486892  0.62356785  0.03687116     0.36900
C392        C  0.23637316  0.59548784  0.99513344     0.37600
N393        N  0.42568185  0.61825140  0.40727999    -0.43200
N394        N  0.30546922  0.71513773  0.01725083    -0.43600
N395        N  0.21060403  0.58992774  0.48581851    -0.41000
N396        N  0.39118587  0.62827184  0.04525510    -0.42400
H397        H  0.31966811  0.58974135  0.06543448     0.13800
H398        H  0.28152706  0.63071759  0.46752676     0.10200
H399        H  0.36451800  0.60662962  0.45898966     0.11300
H400        H  0.36462521  0.72808687  0.46313392     0.17100
C401        C  0.31801057  0.38212956  0.36167479    -0.01100
C402        C  0.33609393  0.38382162  0.38837474     0.07500
C403        C  0.33122249  0.41069870  0.40746860    -0.07100
C404        C  0.30918241  0.43577335  0.40019152     0.04900
C405        C  0.29209758  0.43473453  0.37281975    -0.14300
C406        C  0.29664469  0.40748909  0.35405425    -0.07600
C407        C  0.36092762  0.35842967  0.39612684     0.05900
C408        C  0.38626201  0.35165786  0.37582249    -0.08700
C409        C  0.41012405  0.32800950  0.38200733     0.00900
C410        C  0.40927742  0.31074505  0.40934808     0.00700
C411        C  0.38397525  0.31778305  0.42971493    -0.12300
C412        C  0.35998917  0.34118387  0.42336253     0.01200
C413        C  0.43541540  0.32272542  0.36004618     0.40500
C414        C  0.33437479  0.34654595  0.44502082     0.37100
C415        C  0.32046875  0.35432716  0.34188921     0.36900
C416        C  0.30537876  0.46249290  0.42095822     0.37600
N417        N  0.45557859  0.31864084  0.34229889    -0.43200
N418        N  0.31397763  0.35087298  0.46249372    -0.43600
N419        N  0.30235277  0.48374001  0.43780422    -0.41000
N420        N  0.32244460  0.33206306  0.32603381    -0.42400
H421        H  0.28331759  0.40582663  0.33327240     0.13800
H422        H  0.34508666  0.41237492  0.42794526     0.10200
H423        H  0.38755366  0.36515008  0.35506955     0.11300
H424        H  0.38275565  0.30488060  0.45077951     0.17100
C425        C  0.37606662  0.13535665  0.48852001    -0.01100
C426        C  0.37730488  0.10616477  0.47163122     0.07500
C427        C  0.40229158  0.10227550  0.45046515    -0.07100
C428        C  0.42546598  0.12710060  0.44559625     0.04900
C429        C  0.42371272  0.15668804  0.46195722    -0.14300
C430        C  0.39930999  0.16011807  0.48376809    -0.07600
C431        C  0.35225221  0.07987251  0.47525010     0.05900
C432        C  0.33068917  0.07311101  0.45170844    -0.08700
C433        C  0.30493539  0.05055672  0.45515441     0.00900
C434        C  0.30038040  0.03429943  0.48273204     0.00700
C435        C  0.32310691  0.04004477  0.50569524    -0.12300
C436        C  0.34887911  0.06233247  0.50211894     0.01200
C437        C  0.28294268  0.04576790  0.43042888     0.40500
C438        C  0.37156660  0.06687155  0.52638491     0.37100
C439        C  0.35025534  0.14110209  0.50988258     0.36900
C440        C  0.45126796  0.12124484  0.42421622     0.37600
N441        N  0.26540424  0.04199618  0.41051971    -0.43200
N442        N  0.38974660  0.07062508  0.04580795    -0.43600
N443        N  0.47205954  0.11650316  0.40722106    -0.41000
N444        N  0.32955921  0.14563188  0.52701184    -0.42400
H445        H  0.39751581  0.18276694  0.49625039     0.13800
H446        H  0.40363790  0.07978795  0.43768897     0.10200
H447        H  0.33340039  0.08625716  0.43086601     0.11300
H448        H  0.32054848  0.02737942  0.52679931     0.17100
C449        C  0.39504478  0.37788759  0.14050851    -0.01100
C450        C  0.37550722  0.38244676  0.11502266     0.07500
C451        C  0.38144236  0.36315082  0.08965007    -0.07100
C452        C  0.40631867  0.33949693  0.08941012     0.04900
C453        C  0.42621839  0.33522106  0.11483365    -0.14300
C454        C  0.41999986  0.35448120  0.14022918    -0.07600
C455        C  0.34990475  0.40828589  0.11381337     0.05900
C456        C  0.35420352  0.43441178  0.09393609    -0.08700
C457        C  0.33088026  0.45931788  0.09171768     0.00900
C458        C  0.30256634  0.45856458  0.10987710     0.00700
C459        C  0.29849131  0.43267660  0.13016004    -0.12300
C460        C  0.32160838  0.40737816  0.13192645     0.01200
C461        C  0.33695360  0.48566506  0.07094143     0.40500
C462        C  0.31504785  0.38000113  0.15139973     0.37100
C463        C  0.39044416  0.39740738  0.16702584     0.36900
C464        C  0.40974479  0.31902781  0.06335483     0.37600
N465        N  0.34183925  0.50674416  0.05427465    -0.43200
N466        N  0.30976671  0.35798333  0.16691789    -0.43600
N467        N  0.41218932  0.30251018  0.04250591    -0.41000
N468        N  0.38663047  0.41289877  0.18834830    -0.42400
H469        H  0.43493465  0.35149281  0.15995620     0.13800
H470        H  0.36635310  0.36640808  0.07005713     0.10200
H471        H  0.37593995  0.43532581  0.08007311     0.11300
H472        H  0.27657272  0.43148734  0.14374910     0.17100
C473        C  0.41211292  0.13936002  0.17065216    -0.01100
C474        C  0.39556210  0.12445175  0.14666391     0.07500
C475        C  0.40095821  0.13601068  0.11766548    -0.07100
C476        C  0.42195123  0.16248110  0.11230493     0.04900
C477        C  0.43807569  0.17803002  0.13647109    -0.14300
C478        C  0.43316236  0.16577042  0.16540207    -0.07600
C479        C  0.37065713  0.09851063  0.15159011     0.05900
C480        C  0.34318020  0.10605230  0.16892367    -0.08700
C481        C  0.31881390  0.08277108  0.17418177     0.00900
C482        C  0.32112206  0.05131019  0.16111622     0.00700
C483        C  0.34837307  0.04392826  0.14321251    -0.12300
C484        C  0.37337680  0.06704077  0.13884070     0.01200
C485        C  0.29147892  0.09220849  0.19271461     0.40500
C486        C  0.40234895  0.05747217  0.12262467     0.37100
C487        C  0.40792062  0.12795390  0.20088338     0.36900
C488        C  0.42627253  0.17282820  0.08174934     0.37600
N489        N  0.26971250  0.09972003  0.20773793    -0.43200
N490        N  0.42580179  0.04982445  0.10996399    -0.43600
N491        N  0.42967909  0.18096052  0.05722311    -0.41000
N492        N  0.40448467  0.11888911  0.22512472    -0.42400
H493        H  0.44544866  0.17711258  0.18415867     0.13800
H494        H  0.38811211  0.12471662  0.09917693     0.10200
H495        H  0.34080861  0.13034674  0.17847533     0.11300
H496        H  0.35065545  0.01975650  0.13343657     0.17100
C497        C  0.84040527  0.93598287  0.48032784    -0.01100
C498        C  0.84824224  0.90999421  0.46077652     0.07500
C499        C  0.83015400  0.90636686  0.43448026    -0.07100
C500        C  0.80498156  0.92808146  0.42721839     0.04900
C501        C  0.79677646  0.95398799  0.44696767    -0.14300
C502        C  0.81486323  0.95747886  0.47337209    -0.07600
C503        C  0.87390646  0.88528790  0.96788917     0.05900
C504        C  0.87153262  0.86766043  0.99464716    -0.08700
C505        C  0.89397567  0.84303671  0.00170409     0.00900
C506        C  0.91963016  0.83540092  0.98161786     0.00700
C507        C  0.92185861  0.85293003  0.45472362    -0.12300
C508        C  0.89939919  0.87760938  0.44773353     0.01200
C509        C  0.88906728  0.82529772  0.02919877     0.40500
C510        C  0.90328078  0.89479676  0.41980973     0.37100
C511        C  0.85838716  0.94148490  0.00752155     0.36900
C512        C  0.78791974  0.92243097  0.39953472     0.37600
N513        N  0.88495085  0.81107674  0.05120244    -0.43200
N514        N  0.90633257  0.90833244  0.39731384    -0.43600
N515        N  0.77458524  0.91759143  0.37723846    -0.41000
N516        N  0.87255838  0.94600465  0.02943241    -0.42400
H517        H  0.80920125  0.97725366  0.48866727     0.13800
H518        H  0.83544788  0.88606785  0.41964652     0.10200
H519        H  0.85150860  0.87266660  0.00987167     0.11300
H520        H  0.94137829  0.84752602  0.43909572     0.17100
C521        C  0.60810697  0.90380516  0.43307908    -0.01100
C522        C  0.58701670  0.90346618  0.40825374     0.07500
C523        C  0.59033194  0.92824188  0.38668809    -0.07100
C524        C  0.61454665  0.95258399  0.38918723     0.04900
C525        C  0.63583964  0.95283746  0.41403883    -0.14300
C526        C  0.63185450  0.92840145  0.43590142    -0.07600
C527        C  0.56227416  0.87679249  0.40405654     0.05900
C528        C  0.53823083  0.87139413  0.42599073    -0.08700
C529        C  0.51580149  0.84537818  0.42364643     0.00900
C530        C  0.51680300  0.82423471  0.39863395     0.00700
C531        C  0.54064207  0.83011820  0.37651757    -0.12300
C532        C  0.56319854  0.85585486  0.37905775     0.01200
C533        C  0.49209770  0.84124671  0.44723532     0.40500
C534        C  0.58782190  0.85951231  0.35615783     0.37100
C535        C  0.60696583  0.87817848  0.45523266     0.36900
C536        C  0.61680086  0.97686116  0.36589775     0.37600
N537        N  0.47316588  0.83800478  0.96621779    -0.43200
N538        N  0.60755173  0.86249612  0.33782351    -0.43600
N539        N  0.61859917  0.99621296  0.34712890    -0.41000
N540        N  0.60600775  0.85750938  0.47284757    -0.42400
H541        H  0.64801198  0.92786216  0.45502600     0.13800
H542        H  0.57410801  0.92834324  0.36760143     0.10200
H543        H  0.53716798  0.88746130  0.44518528     0.11300
H544        H  0.54206259  0.81426736  0.35719789     0.17100
C545        C  0.61467016  0.20035926  0.03114945    -0.01100
C546        C  0.60721974  0.16683558  0.02724695     0.07500
C547        C  0.57878846  0.15409686  0.04040017    -0.07100
C548        C  0.55802634  0.17391919  0.05731993     0.04900
C549        C  0.56555433  0.20736313  0.06157490    -0.14300
C550        C  0.59365250  0.22041779  0.04797566    -0.07600
C551        C  0.62811864  0.14436152  0.00927251     0.05900
C552        C  0.66012174  0.13731717  0.01855983    -0.08700
C553        C  0.67926290  0.11400316  0.00345763     0.00900
C554        C  0.66617414  0.09695754  0.97871103     0.00700
C555        C  0.63451036  0.10491681  0.96905810    -0.12300
C556        C  0.61556960  0.12819651  0.98398305     0.01200
C557        C  0.71241957  0.10891074  0.01331098     0.40500
C558        C  0.58318955  0.13502379  0.97289096     0.37100
C559        C  0.64367139  0.21461868  0.01813580     0.36900
C560        C  0.52865153  0.15944416  0.06954643     0.37600
N561        N  0.73906900  0.10511415  0.02115084    -0.43200
N562        N  0.55719759  0.14037429  0.96407074    -0.43600
N563        N  0.50509446  0.14788101  0.07928987    -0.41000
N564        N  0.66700678  0.22596715  0.00775758    -0.42400
H565        H  0.59975207  0.24598429  0.05127317     0.13800
H566        H  0.57282728  0.12839761  0.03746961     0.10200
H567        H  0.67000471  0.14974523  0.03792866     0.11300
H568        H  0.62413383  0.09249725  0.44994382     0.17100
C569        C  0.85488664  0.91153129  0.26400945    -0.01100
C570        C  0.87384661  0.90946453  0.29014515     0.07500
C571        C  0.86846509  0.93239252  0.31300068    -0.07100
C572        C  0.84398848  0.95635006  0.31060614     0.04900
C573        C  0.82440162  0.95797213  0.28462490    -0.14300
C574        C  0.83071889  0.93558333  0.26142915    -0.07600
C575        C  0.89805400  0.88250863  0.29451178     0.05900
C576        C  0.92367973  0.87831682  0.27392383    -0.08700
C577        C  0.94504178  0.85149855  0.27581421     0.00900
C578        C  0.94149477  0.82848234  0.29921452     0.00700
C579        C  0.91648773  0.83350467  0.32036450    -0.12300
C580        C  0.89476003  0.85983179  0.31804565     0.01200
C581        C  0.96999254  0.84825114  0.25320900     0.40500
C582        C  0.86819165  0.86197822  0.33922783     0.37100
C583        C  0.85870331  0.88830266  0.23997493     0.36900
C584        C  0.83952314  0.97837627  0.33543574     0.37600
N585        N  0.98983051  0.84571524  0.23492031    -0.43200
N586        N  0.84684129  0.86368598  0.35612403    -0.43600
N587        N  0.83629333  0.99573486  0.35561375    -0.41000
N588        N  0.86185359  0.86968442  0.22073968    -0.42400
H589        H  0.81620873  0.93626490  0.24128323     0.13800
H590        H  0.88312628  0.93119347  0.33305315     0.10200
H591        H  0.92657636  0.89576053  0.25589232     0.11300
H592        H  0.91314259  0.81619737  0.33844027     0.17100
C593        C  0.55723754  0.88091583  0.25246151    -0.01100
C594        C  0.58408703  0.88897851  0.23403900     0.07500
C595        C  0.58926962  0.87121319  0.20779041    -0.07100
C596        C  0.56798512  0.84613774  0.19927419     0.04900
C597        C  0.54021420  0.83869795  0.21694293    -0.14300
C598        C  0.53544965  0.85601664  0.24375057    -0.07600
C599        C  0.60839865  0.91457297  0.24201181     0.05900
C600        C  0.63037598  0.90832544  0.26514735    -0.08700
C601        C  0.65663019  0.92949921  0.27075335     0.00900
C602        C  0.66123260  0.95791246  0.25296047     0.00700
C603        C  0.63862235  0.96441415  0.23017985    -0.12300
C604        C  0.61242328  0.94307286  0.22462839     0.01200
C605        C  0.67910098  0.92037740  0.29408186     0.40500
C606        C  0.58992971  0.95082761  0.20093343     0.37100
C607        C  0.55136121  0.89819566  0.28003923     0.36900
C608        C  0.57625507  0.82754534  0.17293638     0.37600
N609        N  0.69710173  0.91292484  0.31272855    -0.43200
N610        N  0.57184913  0.95702823  0.18197866    -0.43600
N611        N  0.58300128  0.81250649  0.15194876    -0.41000
N612        N  0.54671449  0.91202774  0.30216284    -0.42400
H613        H  0.51448374  0.85044722  0.25769505     0.13800
H614        H  0.61048916  0.87666706  0.19409100     0.10200
H615        H  0.62768144  0.88613309  0.27816971     0.11300
H616        H  0.64141219  0.98616992  0.21658314     0.17100
C617        C  0.58358897  0.14809464  0.36157900    -0.01100
C618        C  0.61501623  0.14845144  0.37447541     0.07500
C619        C  0.62142853  0.16988296  0.39817447    -0.07100
C620        C  0.59677084  0.19016461  0.40960637     0.04900
C621        C  0.56504222  0.18925219  0.39714689    -0.14300
C622        C  0.55899368  0.16851158  0.37284590    -0.07600
C623        C  0.64182911  0.12786084  0.36232503     0.05900
C624        C  0.66593096  0.14275987  0.34468050    -0.08700
C625        C  0.68905670  0.12390304  0.32932094     0.00900
C626        C  0.68873567  0.08941854  0.33202472     0.00700
C627        C  0.66607676  0.07474072  0.35149659    -0.12300
C628        C  0.64237532  0.09359274  0.36623442     0.01200
C629        C  0.71258663  0.14055672  0.31064369     0.40500
C630        C  0.61790680  0.07718502  0.38407093     0.37100
C631        C  0.57610693  0.12701798  0.33666956     0.36900
C632        C  0.60488969  0.21253056  0.43341723     0.37600
N633        N  0.73142559  0.15385822  0.29562256    -0.43200
N634        N  0.59810564  0.06402280  0.39813756    -0.43600
N635        N  0.61119614  0.23071284  0.45234132    -0.41000
N636        N  0.57017237  0.11001788  0.31676244    -0.42400
H637        H  0.53476632  0.16759568  0.36314148     0.13800
H638        H  0.64572985  0.17072519  0.40774141     0.10200
H639        H  0.66578698  0.16913238  0.34188703     0.11300
H640        H  0.66560774  0.04833544  0.35380131     0.17100
C641        C  0.62390119  0.58841466  0.37978650    -0.01100
C642        C  0.59652540  0.58934962  0.36063388     0.07500
C643        C  0.59374094  0.56557052  0.33817788    -0.07100
C644        C  0.61722354  0.54082389  0.33498633     0.04900
C645        C  0.64385648  0.53911216  0.35494431    -0.14300
C646        C  0.64679399  0.56302339  0.37725102    -0.07600
C647        C  0.57046097  0.61471093  0.36362209     0.05900
C648        C  0.56391866  0.63566114  0.33952684    -0.08700
C649        C  0.53968823  0.65989971  0.34154319     0.00900
C650        C  0.52135799  0.66347003  0.36811516     0.00700
C651        C  0.52761657  0.64212740  0.39199403    -0.12300
C652        C  0.55159944  0.61778527  0.38987582     0.01200
C653        C  0.53528913  0.68170727  0.31655972     0.40500
C654        C  0.55588907  0.59578167  0.41474097     0.37100
C655        C  0.62990901  0.61408518  0.40122551     0.36900
C656        C  0.61295816  0.51703948  0.31148307     0.37600
N657        N  0.53181962  0.69929257  0.29660261    -0.43200
N658        N  0.55948154  0.57820388  0.43468038    -0.43600
N659        N  0.60954958  0.49802717  0.29260798    -0.41000
N660        N  0.63486149  0.63472660  0.41830923    -0.42400
H661        H  0.66771384  0.56257912  0.39202849     0.13800
H662        H  0.57300472  0.56623477  0.32319599     0.10200
H663        H  0.57818064  0.63340471  0.31923927     0.11300
H664        H  0.51350616  0.64427921  0.41238541     0.17100
C665        C  0.85246186  0.55688259  0.30844055    -0.01100
C666        C  0.85247945  0.58613999  0.32519675     0.07500
C667        C  0.82629149  0.59247486  0.34455764    -0.07100
C668        C  0.80046894  0.57016916  0.34764466     0.04900
C669        C  0.80050892  0.54064068  0.33105411    -0.14300
C670        C  0.82659245  0.53451124  0.31141541    -0.07600
C671        C  0.87901544  0.61097878  0.32235017     0.05900
C672        C  0.88342447  0.62715523  0.29509347    -0.08700
C673        C  0.90713987  0.65174641  0.29176539     0.00900
C674        C  0.92716983  0.66076845  0.31626084     0.00700
C675        C  0.92281483  0.64412302  0.34345543    -0.12300
C676        C  0.89905394  0.61956876  0.34666550     0.01200
C677        C  0.91013728  0.66693825  0.26283112     0.40500
C678        C  0.89600548  0.60316439  0.37503734     0.37100
C679        C  0.87912600  0.54888888  0.28863450     0.36900
C680        C  0.77379357  0.57888292  0.36726254     0.37600
N681        N  0.91229517  0.67887926  0.23951605    -0.43200
N682        N  0.89357079  0.58999492  0.39776693    -0.43600
N683        N  0.75236236  0.58583718  0.38290634    -0.41000
N684        N  0.90048502  0.54242998  0.27274765    -0.42400
H685        H  0.82709767  0.51193170  0.29873041     0.13800
H686        H  0.82589154  0.61516405  0.35709701     0.10200
H687        H  0.86794150  0.62074876  0.27636482     0.11300
H688        H  0.93788852  0.65041616  0.36247588     0.17100
C689        C  0.62389753  0.36702613  0.27592195    -0.01100
C690        C  0.63328686  0.36082913  0.24618579     0.07500
C691        C  0.66231311  0.37488563  0.23529278    -0.07100
C692        C  0.68184058  0.39497810  0.25336504     0.04900
C693        C  0.67230533  0.40148757  0.28315987    -0.14300
C694        C  0.64340597  0.38694422  0.29404080    -0.07600
C695        C  0.61198407  0.34219296  0.22527191     0.05900
C696        C  0.59991234  0.35850178  0.20016213    -0.08700
C697        C  0.57925415  0.34270864  0.17993301     0.00900
C698        C  0.57007790  0.30964617  0.18459131     0.00700
C699        C  0.58232743  0.29322637  0.20975077    -0.12300
C700        C  0.60339506  0.30905529  0.22982842     0.01200
C701        C  0.56703654  0.36164864  0.15523468     0.40500
C702        C  0.61655064  0.29059198  0.25445210     0.37100
C703        C  0.59370118  0.35437982  0.28810926     0.36900
C704        C  0.71143660  0.40829735  0.24057143     0.37600
N705        N  0.55721563  0.37692580  0.13550915    -0.43200
N706        N  0.62706206  0.27589245  0.27426457    -0.43600
N707        N  0.73513666  0.41881759  0.23014188    -0.41000
N708        N  0.56964075  0.34410375  0.29802676    -0.42400
H709        H  0.63545565  0.39173363  0.31668365     0.13800
H710        H  0.66957675  0.37034864  0.21240700     0.10200
H711        H  0.60633287  0.38397961  0.19657476     0.11300
H712        H  0.57584276  0.26782202  0.21353717     0.17100
C713        C  0.61872446  0.58898286  0.15176267    -0.01100
C714        C  0.60592306  0.61097785  0.13047920     0.07500
C715        C  0.61664698  0.60858028  0.10086331    -0.07100
C716        C  0.63973994  0.58513423  0.09218682     0.04900
C717        C  0.65315185  0.56337089  0.11355352    -0.04700
C718        C  0.64205418  0.56558385  0.14320847    -0.07600
C719        C  0.58284134  0.63784934  0.13875941     0.05900
C720        C  0.59265926  0.66107586  0.15999042    -0.08700
C721        C  0.57239297  0.68733450  0.16785692     0.00900
C722        C  0.54134760  0.69088573  0.15438686     0.00700
C723        C  0.53185494  0.66812696  0.13252875    -0.12300
C724        C  0.55218819  0.64177178  0.12471430     0.01200
C725        C  0.58472348  0.71092459  0.18903221     0.40500
C726        C  0.54069007  0.61861701  0.10276811     0.37100
C727        C  0.60812817  0.58969552  0.18248430     0.36900
C728        C  0.64949774  0.58481300  0.06123386     0.37600
N729        N  0.59470485  0.72989541  0.20589068    -0.43200
N730        N  0.53157904  0.60010256  0.08509846    -0.43600
N731        N  0.65716830  0.58471491  0.03638510    -0.41000
N732        N  0.59977334  0.59023130  0.20714502    -0.42400
H733        H  0.65169375  0.54904172  0.15990517     0.13800
H734        H  0.60735599  0.62566275  0.08443337     0.10200
H735        H  0.61655234  0.65893634  0.17019014     0.11300
H736        H  0.50812169  0.67040551  0.12206690     0.17100
C737        C  0.89131761  0.63734353  0.00919869    -0.01100
C738        C  0.88380070  0.62832377  0.03878014     0.07500
C739        C  0.90142781  0.64298056  0.06213626    -0.07100
C740        C  0.92480356  0.66750928  0.05658914     0.04900
C741        C  0.93075891  0.67816597  0.02704010    -0.14300
C742        C  0.91430077  0.66210397  0.00364023    -0.07600
C743        C  0.85665240  0.60496868  0.04589759     0.05900
C744        C  0.85720059  0.57293872  0.03435590    -0.08700
C745        C  0.83177683  0.55070497  0.04046876     0.00900
C746        C  0.80546622  0.56016105  0.05898681     0.00700
C747        C  0.80499907  0.59211118  0.07056376    -0.12300
C748        C  0.82994671  0.61452737  0.06391524     0.01200
C749        C  0.83404567  0.51792411  0.02862608     0.40500
C750        C  0.82710453  0.64751317  0.07523138     0.37100
C751        C  0.87513029  0.62228721  0.98410889     0.36900
C752        C  0.94182822  0.68138449  0.08174817     0.37600
N753        N  0.83582523  0.49158867  0.51925775    -0.43200
N754        N  0.82488359  0.67396740  0.08423667    -0.43600
N755        N  0.95555366  0.69229810  0.10197979    -0.41000
N756        N  0.86240786  0.60997512  0.96399714    -0.42400
H757        H  0.91896025  0.66921538  0.98074398     0.13800
H758        H  0.89648505  0.63555666  0.08490459     0.10200
H759        H  0.87767567  0.56519990  0.02075663     0.11300
H760        H  0.78485251  0.59972562  0.08464688     0.17100
C761        C  0.60900928  0.39697092  0.04868614    -0.01100
C762        C  0.61737388  0.37630210  0.02477476     0.07500
C763        C  0.64865398  0.37880793  0.01198890    -0.07100
C764        C  0.67162024  0.40142534  0.02289598     0.04900
C765        C  0.66332282  0.42198250  0.04712133    -0.14300
C766        C  0.63198673  0.41918012  0.05985923    -0.07600
C767        C  0.59301713  0.35352529  0.51158648     0.05900
C768        C  0.57959063  0.36140337  0.48387188    -0.08700
C769        C  0.55591158  0.34137005  0.47067503     0.00900
C770        C  0.54605828  0.31188049  0.48482321     0.00700
C771        C  0.55910169  0.30445222  0.51297451    -0.12300
C772        C  0.58206043  0.32517284  0.02657846     0.01200
C773        C  0.54144884  0.35255703  0.44317966     0.40500
C774        C  0.59402195  0.31689923  0.05586081     0.37100
C775        C  0.57641728  0.39689990  0.06106974     0.36900
C776        C  0.70366419  0.40227800  0.00941178     0.37600
N777        N  0.52975225  0.36183858  0.42130579    -0.43200
N778        N  0.60331430  0.31039322  0.07946309    -0.43600
N779        N  0.72936193  0.40286709  0.99860523    -0.41000
N780        N  0.55011658  0.39687962  0.07060000    -0.42400
H781        H  0.62507595  0.43498621  0.07824339     0.13800
H782        H  0.65506276  0.36308950  0.49340145     0.10200
H783        H  0.58722069  0.38376688  0.47276207     0.11300
H784        H  0.55172442  0.28213731  0.52420151     0.17100
C785        C  0.05911020  0.37237324  0.26044085    -0.01100
C786        C  0.07870609  0.37204655  0.28616577     0.07500
C787        C  0.07526529  0.34622789  0.30659402    -0.07100
C788        C  0.05323115  0.32042763  0.30131267     0.04900
C789        C  0.03414020  0.32025231  0.27504551    -0.14300
C790        C  0.03731806  0.34659163  0.25500572    -0.07600
C791        C  0.10304350  0.39834004  0.29208161     0.05900
C792        C  0.09621542  0.42172177  0.31404674    -0.08700
C793        C  0.11894769  0.44623379  0.32103995     0.00900
C794        C  0.14956185  0.44728967  0.30626478     0.00700
C795        C  0.15580687  0.42461961  0.28338564    -0.12300
C796        C  0.13285465  0.40023766  0.27625719     0.01200
C797        C  0.10986070  0.47052179  0.34294068     0.40500
C798        C  0.14074305  0.37674419  0.25330573     0.37100
C799        C  0.06063983  0.39917603  0.23951509     0.36900
C800        C  0.05184566  0.29398320  0.32260841     0.37600
N801        N  0.10261335  0.49015991  0.36032980    -0.43200
N802        N  0.14688918  0.35786418  0.23490094    -0.43600
N803        N  0.05097314  0.27287292  0.33979124    -0.41000
N804        N  0.06177672  0.42071552  0.22279961    -0.42400
H805        H  0.02257820  0.34717379  0.23497155     0.13800
H806        H  0.09024879  0.34599355  0.32648255     0.10200
H807        H  0.07300747  0.42079418  0.32575685     0.11300
H808        H  0.17909708  0.42516429  0.27181506     0.17100
C809        C  0.07730381  0.14137332  0.18999396    -0.01100
C810        C  0.08280220  0.11523654  0.21003708     0.07500
C811        C  0.06344319  0.11302695  0.23577894    -0.07100
C812        C  0.03945098  0.13642651  0.24213904     0.04900
C813        C  0.03397168  0.16281813  0.22225306    -0.14300
C814        C  0.05278679  0.16454978  0.19602974    -0.07600
C815        C  0.10976008  0.09101529  0.20580527     0.05900
C816        C  0.13375869  0.08810242  0.22803253    -0.08700
C817        C  0.15979431  0.06597613  0.22507653     0.00900
C818        C  0.16239401  0.04634536  0.19923855     0.00700
C819        C  0.13799958  0.04887567  0.17729377    -0.12300
C820        C  0.11163587  0.07045668  0.18057918     0.01200
C821        C  0.18401389  0.06494912  0.24838290     0.40500
C822        C  0.08629707  0.07022140  0.15824317     0.37100
C823        C  0.09774475  0.14605030  0.16404630     0.36900
C824        C  0.02111025  0.13269037  0.26949218     0.37600
N825        N  0.20332289  0.06427099  0.26717165    -0.43200
N826        N  0.06598099  0.07003299  0.14035434    -0.43600
N827        N  0.00660342  0.12982080  0.29152222    -0.41000
N828        N  0.11416988  0.14967258  0.14326090    -0.42400
H829        H  0.04941082  0.18492634  0.18089826     0.13800
H830        H  0.06748414  0.09308652  0.25129877     0.10200
H831        H  0.13235874  0.10353969  0.24765248     0.11300
H832        H  0.13926130  0.03355832  0.15758570     0.17100
C833        C  0.81667804  0.09151765  0.33186315    -0.01100
C834        C  0.81741246  0.12571505  0.33608766     0.07500
C835        C  0.79387295  0.14036179  0.35452875    -0.07100
C836        C  0.77098087  0.12121058  0.37006475     0.04900
C837        C  0.77140298  0.08676260  0.36712095    -0.14300
C838        C  0.79362521  0.07240805  0.34718470    -0.07600
C839        C  0.84301651  0.14648092  0.32200942     0.05900
C840        C  0.83501622  0.16544000  0.29708277    -0.08700
C841        C  0.85867278  0.18497743  0.28300190     0.00900
C842        C  0.89107910  0.18587669  0.29397936     0.00700
C843        C  0.89880337  0.16739627  0.31936368    -0.12300
C844        C  0.87517027  0.14766420  0.33327830     0.01200
C845        C  0.84869770  0.20485201  0.25807465     0.40500
C846        C  0.88442650  0.12883504  0.35911711     0.37100
C847        C  0.83977683  0.07551061  0.31237249     0.36900
C848        C  0.74688629  0.13745551  0.38839376     0.37600
N849        N  0.84075580  0.22102335  0.23823261    -0.43200
N850        N  0.89189003  0.11371092  0.37980109    -0.43600
N851        N  0.72735163  0.15036370  0.40290546    -0.41000
N852        N  0.85830385  0.06267627  0.29675798    -0.42400
H853        H  0.79390781  0.04606985  0.34459160     0.13800
H854        H  0.79384605  0.16673859  0.35726131     0.10200
H855        H  0.81023343  0.16486504  0.28856468     0.11300
H856        H  0.92352753  0.16784095  0.32800469     0.17100
C857        C  0.87796422  0.33603262  0.16064439    -0.01100
C858        C  0.85209682  0.34987751  0.17739298     0.07500
C859        C  0.84727202  0.33946527  0.20684828    -0.07100
C860        C  0.86832950  0.31678807  0.22011610     0.04900
C861        C  0.89523299  0.30409647  0.20385732    -0.14300
C862        C  0.89919400  0.31342347  0.17393459    -0.07600
C863        C  0.82930447  0.37451256  0.16441415     0.05900
C864        C  0.81128209  0.36610912  0.13898956    -0.08700
C865        C  0.79035682  0.38867242  0.12545263     0.00900
C866        C  0.78701573  0.42056083  0.13739678     0.00700
C867        C  0.80384431  0.42855288  0.16363696    -0.12300
C868        C  0.82489447  0.40590939  0.17716418     0.01200
C869        C  0.77177565  0.37801525  0.09986856     0.40500
C870        C  0.84232358  0.41585590  0.20361479     0.37100
C871        C  0.88378442  0.34517389  0.12999530     0.36900
C872        C  0.86095509  0.30631520  0.25014796     0.37600
N873        N  0.75674550  0.36947585  0.07946781    -0.43200
N874        N  0.85608441  0.42386747  0.22491617    -0.43600
N875        N  0.85486159  0.29785121  0.27414842    -0.41000
N876        N  0.88837680  0.35226335  0.10536353    -0.42400
H877        H  0.91943641  0.30368846  0.16105822     0.13800
H878        H  0.82676322  0.34898945  0.21950860     0.10200
H879        H  0.81355397  0.34170885  0.12968017     0.11300
H880        H  0.80130843  0.45284128  0.17310997     0.17100
C881        C  0.11438568  0.41027472  0.10261613    -0.01100
C882        C  0.09685900  0.40611683  0.07589151     0.07500
C883        C  0.10436874  0.42630156  0.05144435    -0.07100
C884        C  0.12889294  0.45035996  0.05329119     0.04900
C885        C  0.14648023  0.45467910  0.08017759    -0.14300
C886        C  0.13880659  0.43424742  0.10454022    -0.07600
C887        C  0.07092239  0.38058391  0.07301068     0.05900
C888        C  0.04345210  0.38160520  0.09186355    -0.08700
C889        C  0.01905318  0.35742266  0.09043689     0.00900
C890        C  0.02139472  0.33199517  0.06909205     0.00700
C891        C  0.04897870  0.33116453  0.05025752    -0.12300
C892        C  0.07370798  0.35479881  0.05229036     0.01200
C893        C  0.99213533  0.35946348  0.11122119     0.40500
C894        C  0.10239505  0.35123399  0.03375257     0.37100
C895        C  0.10823244  0.38971538  0.12822981     0.36900
C896        C  0.13525948  0.47007128  0.02720928     0.37600
N897        N  0.97077628  0.36108095  0.12812009    -0.43200
N898        N  0.12547351  0.34826154  0.01904001    -0.43600
N899        N  0.14028079  0.48582132  0.50624563    -0.41000
N900        N  0.10312257  0.37324245  0.14870641    -0.42400
H901        H  0.15194819  0.43686823  0.12532411     0.13800
H902        H  0.09093239  0.42327740  0.03085602     0.10200
H903        H  0.04122621  0.40127829  0.10796293     0.11300
H904        H  0.05164503  0.31157214  0.03413472     0.17100
C905        C  0.04485727  0.13303964  0.51151287    -0.01100
C906        C  0.06320791  0.12141661  0.03591041     0.07500
C907        C  0.05801018  0.13519716  0.06411083    -0.07100
C908        C  0.03543830  0.16056682  0.06825985     0.04900
C909        C  0.01727218  0.17275375  0.04374305    -0.14300
C910        C  0.02203311  0.15829359  0.51560428    -0.07600
C911        C  0.08909785  0.09610481  0.53225235     0.05900
C912        C  0.11727163  0.10403298  0.51592925    -0.08700
C913        C  0.14253770  0.08128718  0.51213447     0.00900
C914        C  0.13972930  0.04949072  0.52451348     0.00700
C915        C  0.11187180  0.04192147  0.54161919    -0.12300
C916        C  0.08670015  0.06487613  0.04556775     0.01200
C917        C  0.17162304  0.09186761  0.49653549     0.40500
C918        C  0.05822576  0.05554677  0.06263978     0.37100
C919        C  0.04894593  0.11926509  0.48210560     0.36900
C920        C  0.03138255  0.17323382  0.09808418     0.37600
N921        N  0.19498119  0.10055532  0.48423784    -0.43200
N922        N  0.03538417  0.04805283  0.07630887    -0.43600
N923        N  0.02809527  0.18342971  0.12196621    -0.41000
N924        N  0.05225486  0.10821924  0.45853710    -0.42400
H925        H  0.00830726  0.16709232  0.49657763     0.13800
H926        H  0.07207944  0.12638643  0.08293845     0.10200
H927        H  0.11967697  0.12832919  0.50638430     0.11300
H928        H  0.10939723  0.01776033  0.05140494     0.17100
C929        C  0.84424690  0.12621330  0.20582775    -0.01100
C930        C  0.83130018  0.14107068  0.18010139     0.07500
C931        C  0.79920468  0.13336461  0.17146800    -0.07100
C932        C  0.78024958  0.11079748  0.18775945     0.04900
C933        C  0.79341959  0.09558587  0.21341800    -0.14300
C934        C  0.82535040  0.10398093  0.22219610    -0.07600
C935        C  0.85184920  0.16262338  0.16082439     0.05900
C936        C  0.87910426  0.14891372  0.14652120    -0.08700
C937        C  0.89891825  0.16771103  0.12764170     0.00900
C938        C  0.89158990  0.20103001  0.12263866     0.00700
C939        C  0.86505071  0.21517294  0.13776456    -0.12300
C940        C  0.84494966  0.19616501  0.15647990     0.01200
C941        C  0.92727072  0.15244603  0.11438414     0.40500
C942        C  0.81737049  0.21154698  0.17082481     0.37100
C943        C  0.87698602  0.13332638  0.21590481     0.36900
C944        C  0.74737117  0.10421225  0.17778995     0.37600
N945        N  0.95009183  0.14019991  0.10398438    -0.43200
N946        N  0.79524232  0.22398215  0.18223584    -0.43600
N947        N  0.72101805  0.09906206  0.16970324    -0.41000
N948        N  0.90326689  0.13883739  0.22396093    -0.42400
H949        H  0.83593946  0.09279167  0.24181988     0.13800
H950        H  0.78916039  0.14456982  0.15159542     0.10200
H951        H  0.88477941  0.12327501  0.14998232     0.11300
H952        H  0.85936309  0.24078416  0.13416846     0.17100
C953        C  0.81081881  0.35374738  0.40768075    -0.01100
C954        C  0.81788913  0.36173157  0.43764302     0.07500
C955        C  0.80420086  0.39041351  0.44978231    -0.07100
C956        C  0.78360880  0.41062006  0.43286243     0.04900
C957        C  0.77684878  0.40272063  0.40284920    -0.14300
C958        C  0.79082369  0.37431208  0.39060000    -0.07600
C959        C  0.83948674  0.34072448  0.45665127     0.05900
C960        C  0.87123350  0.33287183  0.44685164    -0.08700
C961        C  0.89226739  0.31371079  0.46437539     0.00900
C962        C  0.88209986  0.30285091  0.49288171     0.00700
C963        C  0.85039136  0.31070492  0.50261220    -0.12300
C964        C  0.82902575  0.32886041  0.48468824     0.01200
C965        C  0.92450522  0.30663264  0.45293817     0.40500
C966        C  0.79604860  0.33394480  0.49519356     0.37100
C967        C  0.82298520  0.32412752  0.39407807     0.36900
C968        C  0.77093487  0.44001933  0.44648661     0.37600
N969        N  0.95028707  0.30087576  0.44367411    -0.43200
N970        N  0.76956369  0.33780766  0.50355479    -0.43600
N971        N  0.76069670  0.46354181  0.45741497    -0.41000
N972        N  0.83269976  0.30041254  0.38310482    -0.42400
H973        H  0.78583592  0.36793634  0.36762664     0.13800
H974        H  0.80984572  0.39720954  0.47251923     0.10200
H975        H  0.87977246  0.34203110  0.42555923     0.11300
H976        H  0.84205353  0.30224359  0.02422731     0.17100
O977        O  0.92661904  0.26590897  0.00484556    -0.56900
C978        C  0.99385349  0.20054820  0.54687692     0.75700
O979        O  0.97398389  0.30014297  0.58462515    -0.58000
C980        C  0.90418593  0.28499106  0.01365334     0.75700
C981        C  0.91008718  0.22037139  0.60030303     0.78100
Cd982      Cd  0.94882297  0.25423246  0.55582451     1.37500
O983        O  0.97232582  0.20702596  0.02737231    -0.56900
O984        O  0.91565737  0.20887270  0.57461856    -0.55700
C985        C  0.99602229  0.30606571  0.56540255     0.78100
O986        O  0.92128439  0.24876232  0.60563718    -0.58100
O987        O  0.99448558  0.21927470  0.56932408    -0.56500
O988        O  0.90164848  0.28846930  0.54156586    -0.56500
O989        O  0.99560881  0.28827328  0.54234847    -0.55700
O990        O  0.94022136  0.21886778  0.79318966    -0.56900
C991        C  0.01148845  0.29306788  0.76699017     0.75700
O992        O  0.99770277  0.20798019  0.70997758    -0.58000
C993        C  0.91723074  0.20502057  0.77890851     0.75700
C994        C  0.91998322  0.28245671  0.71795267     0.78100
Cd995      Cd  0.96695125  0.24189932  0.74786521     1.37500
O996        O  0.99782826  0.27452040  0.78604290    -0.56900
O997        O  0.92435634  0.28277333  0.74587298    -0.55700
C998        C  0.01067037  0.18971267  0.72957531     0.78100
O999        O  0.93819568  0.26325856  0.70295818    -0.58100
O1000       O  0.00453997  0.28754065  0.74000322    -0.56500
O1001       O  0.91785510  0.20802845  0.75084326    -0.56500
O1002       O  0.00318248  0.19598283  0.75628849    -0.55700
O1003       O  0.75179137  0.46812131  0.63579694    -0.56900
C1004       C  0.67884817  0.53881461  0.60576402     0.75700
O1005       O  0.76696880  0.51585588  0.55072297    -0.58000
C1006       C  0.76738907  0.44590406  0.62199583     0.75700
C1007       C  0.68636703  0.44610428  0.56030281     0.78100
Cd1008     Cd  0.72902007  0.49254211  0.58906579     1.37500
O1009       O  0.69355719  0.52200085  0.62544043    -0.56900
O1010       O  0.68403582  0.45383251  0.58753683    -0.55700
C1011       C  0.77920147  0.53707284  0.56816817     0.78100
O1012       O  0.70876167  0.46035703  0.54544556    -0.58100
O1013       O  0.68746994  0.53369358  0.57904129    -0.56500
O1014       O  0.76561876  0.44638205  0.59389716    -0.56500
O1015       O  0.76785854  0.53772937  0.59440890    -0.55700
O1016       O  0.73325112  0.44127246  0.89251691    -0.56900
C1017       C  0.66997344  0.51420649  0.85168808     0.75700
O1018       O  0.76749266  0.49507594  0.81419130    -0.58000
C1019       C  0.75723815  0.42439118  0.88318237     0.75700
C1020       C  0.69082554  0.42377904  0.80335934     0.78100
Cd1021     Cd  0.72304897  0.46841643  0.84354277     1.37500
O1022       O  0.68271916  0.49987557  0.87392726    -0.56900
O1023       O  0.68373681  0.42567988  0.83082585    -0.55700
C1024       C  0.77424614  0.51574376  0.83443296     0.78100
O1025       O  0.71379260  0.44230165  0.79437075    -0.58100
O1026       O  0.68125969  0.50676621  0.82631095    -0.56500
O1027       O  0.76414278  0.42713195  0.85580010    -0.56500
O1028       O  0.75751994  0.51388702  0.85807691    -0.55700
O1029       O  0.74997588  0.05600002  0.72295480    -0.56900
C1030       C  0.68890314  0.98108488  0.75789992     0.75700
O1031       O  0.78784125  0.00166171  0.80075148    -0.58000
C1032       C  0.77508389  0.07144540  0.73201858     0.75700
C1033       C  0.70879910  0.06826675  0.81229402     0.78100
Cd1034     Cd  0.74221505  0.02550852  0.77074570     1.37500
O1035       O  0.69732174  0.00262865  0.73892395    -0.56900
O1036       O  0.71496221  0.07642498  0.78573816    -0.55700
C1037       C  0.79685395  0.98161038  0.78074321     0.78100
O1038       O  0.71935229  0.04055378  0.82033962    -0.58100
O1039       O  0.70532681  0.98049716  0.78165433    -0.56500
O1040       O  0.78439537  0.06505799  0.75827923    -0.56500
O1041       O  0.78063603  0.98233056  0.75675593    -0.55700
O1042       O  0.73919587  0.03850693  0.87762307    -0.56900
C1043       C  0.66281790  0.97725539  0.91784609     0.75700
O1044       O  0.75895297  0.99721948  0.46037946    -0.58000
C1045       C  0.75146428  0.06524852  0.88661372     0.75700
C1046       C  0.68430619  0.07116918  0.46202779     0.78100
Cd1047     Cd  0.71712327  0.02209524  0.92698446     1.37500
O1048       O  0.67303736  0.99561775  0.89694620    -0.56900
O1049       O  0.67593625  0.06355582  0.93574308    -0.55700
C1050       C  0.76977485  0.97748082  0.94079863     0.78100
O1051       O  0.70818473  0.05531514  0.47293889    -0.58100
O1052       O  0.67742920  0.98025493  0.94254700    -0.56500
O1053       O  0.74705596  0.07210373  0.91376202    -0.56500
O1054       O  0.75627438  0.97894875  0.91556594    -0.55700
O1055       O  0.53147472  0.26709922  0.67164336    -0.56900
C1056       C  0.45988905  0.20682892  0.63242296     0.75700
O1057       O  0.46835331  0.30016107  0.59378143    -0.58000
C1058       C  0.54780503  0.29210671  0.66377766     0.75700
C1059       C  0.54556424  0.22758662  0.58204260     0.78100
Cd1060     Cd  0.50291491  0.26117212  0.62301982     1.37500
O1061       O  0.47782892  0.21758491  0.65335214    -0.56900
O1062       O  0.53718181  0.21634890  0.60714483    -0.55700
C1063       C  0.45271361  0.31038573  0.61645166     0.78100
O1064       O  0.53541055  0.25608821  0.57560179    -0.58100
O1065       O  0.46155455  0.22204740  0.60792098    -0.56500
O1066       O  0.54390451  0.30154846  0.63715932    -0.56500
O1067       O  0.46098614  0.29837405  0.64127292    -0.55700
O1068       O  0.51504768  0.22053918  0.89467358    -0.56900
C1069       C  0.43457605  0.28633550  0.91813744     0.75700
O1070       O  0.45490007  0.20510499  0.97474172    -0.58000
C1071       C  0.53753369  0.20784392  0.91037714     0.75700
C1072       C  0.52382843  0.28795202  0.97009175     0.78100
Cd1073     Cd  0.48405498  0.24132615  0.93852941     1.37500
O1074       O  0.45550861  0.27463038  0.90009097    -0.56900
O1075       O  0.51853602  0.28924520  0.94235899    -0.55700
C1076       C  0.44504987  0.18513466  0.95495056     0.78100
O1077       O  0.50994240  0.26467422  0.98414178    -0.58100
O1078       O  0.43636772  0.27628028  0.94476205    -0.56500
O1079       O  0.53497847  0.21102120  0.93833846    -0.56500
O1080       O  0.45347878  0.19126411  0.92838493    -0.55700
O1081       O  0.21624902  0.56155175  0.64169538    -0.56900
C1082       C  0.27593975  0.48278434  0.60608124     0.75700
O1083       O  0.18153146  0.49964508  0.56379397    -0.58000
C1084       C  0.18954300  0.57442912  0.63345037     0.75700
C1085       C  0.25826832  0.57058659  0.55471927     0.78100
Cd1086     Cd  0.22326933  0.52812247  0.59516569     1.37500
O1087       O  0.25918650  0.49380792  0.62774245    -0.56900
O1088       O  0.26465920  0.56854803  0.58225490    -0.55700
C1089       C  0.17261750  0.47992592  0.58415684     0.78100
O1090       O  0.23413575  0.55373190  0.54559445    -0.58100
O1091       O  0.26835642  0.49300401  0.58044739    -0.56500
O1092       O  0.17967045  0.56669946  0.60769894    -0.56500
O1093       O  0.18727837  0.48283413  0.60880588    -0.55700
O1094       O  0.25073920  0.54078640  0.79510206    -0.56900
C1095       C  0.17595013  0.46985667  0.81612440     0.75700
O1096       O  0.25765503  0.48275784  0.87958300    -0.58000
C1097       C  0.27240788  0.55608424  0.80981138     0.75700
C1098       C  0.18626638  0.55972350  0.86746044     0.78100
Cd1099     Cd  0.22726009  0.51151726  0.83889840     1.37500
O1100       O  0.19773330  0.48098646  0.79858870    -0.56900
O1101       O  0.19024751  0.55804836  0.83952379    -0.55700
C1102       C  0.27017154  0.46147543  0.86237235     0.78100
O1103       O  0.20187895  0.53890563  0.88289440    -0.58100
O1104       O  0.17824757  0.47829299  0.84314966    -0.56500
O1105       O  0.27339797  0.54988260  0.83744225    -0.56500
O1106       O  0.26290540  0.46395634  0.83507773    -0.55700
O1107       O  0.44495549  0.74161199  0.73196352    -0.56900
C1108       C  0.51602869  0.81357763  0.70737021     0.75700
O1109       O  0.49612507  0.72829636  0.64693036    -0.58000
C1110       C  0.43060878  0.71861898  0.71810919     0.75700
C1111       C  0.42293857  0.80467732  0.65628501     0.78100
Cd1112     Cd  0.47120586  0.76425947  0.68616381     1.37500
O1113       O  0.49766293  0.79843400  0.72560930    -0.56900
O1114       O  0.42570700  0.80319096  0.68431015    -0.55700
C1115       C  0.51791503  0.71670584  0.66405075     0.78100
O1116       O  0.44268530  0.78705028  0.64145009    -0.58100
O1117       O  0.51271223  0.80617818  0.68015215    -0.56500
O1118       O  0.43497801  0.71752288  0.69023964    -0.56500
O1119       O  0.51816698  0.72770707  0.69040822    -0.55700
O1120       O  0.42874956  0.75367835  0.83158531    -0.56900
C1121       C  0.49658500  0.68970254  0.87226600     0.75700
O1122       O  0.47416195  0.78587486  0.91424591    -0.58000
C1123       C  0.40480868  0.77096496  0.84013698     0.75700
C1124       C  0.40698366  0.70533065  0.92190292     0.78100
Cd1125     Cd  0.44961605  0.74146496  0.88229634     1.37500
O1126       O  0.47986823  0.70127844  0.85094487    -0.56900
O1127       O  0.41480410  0.69519765  0.89619103    -0.55700
C1128       C  0.49365186  0.79621604  0.89428368     0.78100
O1129       O  0.41828665  0.73311320  0.92944108    -0.58100
O1130       O  0.49111870  0.70176965  0.89778357    -0.56500
O1131       O  0.40031536  0.77276341  0.86797552    -0.56500
O1132       O  0.49253847  0.78113001  0.86973226    -0.55700
O1133       O  0.22506035  0.96436275  0.62869760    -0.56900
C1134       C  0.29582932  0.02598949  0.66661848     0.75700
O1135       O  0.20632619  0.00983722  0.71423180    -0.58000
C1136       C  0.20669868  0.94158094  0.63822505     0.75700
C1137       C  0.27573991  0.93047513  0.71516198     0.78100
Cd1138     Cd  0.24396464  0.98017562  0.67905449     1.37500
O1139       O  0.28828555  0.00443172  0.64745960    -0.56900
O1140       O  0.28066242  0.93303449  0.68737637    -0.55700
C1141       C  0.19032554  0.02383667  0.69364793     0.78100
O1142       O  0.25578818  0.95082210  0.72641239    -0.58100
O1143       O  0.28033381  0.02507639  0.69098534    -0.56500
O1144       O  0.20694447  0.93597297  0.66595579    -0.56500
O1145       O  0.19922994  0.01744080  0.66731239    -0.55700
O1146       O  0.20192647  0.94452016  0.95911188    -0.56900
C1147       C  0.27153017  0.01307705  0.98943565     0.75700
O1148       O  0.16975397  0.00031696  0.53696370    -0.58000
C1149       C  0.18189151  0.92461594  0.97099826     0.75700
C1150       C  0.24876744  0.93492399  0.54937922     0.78100
Cd1151     Cd  0.21455580  0.97466271  0.00649369     1.37500
O1152       O  0.25331738  0.00045819  0.96962191    -0.56900
O1153       O  0.24533932  0.92655843  0.02242365    -0.55700
C1154       C  0.16482042  0.02377950  0.01904761     0.78100
O1155       O  0.23482248  0.96122617  0.55736493    -0.58100
O1156       O  0.26355649  0.00709132  0.01610461    -0.56500
O1157       O  0.17666436  0.92866379  0.99857766    -0.56500
O1158       O  0.18224841  0.02388651  0.99576836    -0.55700
O1159       O  0.02389610  0.78139746  0.54543830    -0.56900
C1160       C  0.95269123  0.70629972  0.51943259     0.75700
O1161       O  0.96244558  0.79777329  0.96777848    -0.58000
C1162       C  0.03838965  0.80427236  0.53136611     0.75700
C1163       C  0.03796332  0.72630493  0.96350899     0.78100
Cd1164     Cd  0.99316869  0.76124370  0.50130386     1.37500
O1165       O  0.97053705  0.72108794  0.53830262    -0.56900
O1166       O  0.04113244  0.72769400  0.49153292    -0.55700
C1167       C  0.94437532  0.80972929  0.48804292     0.78100
O1168       O  0.01429390  0.74217510  0.95244319    -0.58100
O1169       O  0.95402901  0.71713212  0.49305718    -0.56500
O1170       O  0.03180386  0.80659189  0.50392142    -0.56500
O1171       O  0.94889953  0.79883527  0.51409762    -0.55700
O1172       O  0.01781627  0.75248104  0.86285063    -0.56900
C1173       C  0.95232584  0.68731337  0.81446956     0.75700
O1174       O  0.98179353  0.78871873  0.78213932    -0.58000
C1175       C  0.04579089  0.76337153  0.85567294     0.75700
C1176       C  0.04591010  0.71002697  0.76918636     0.78100
Cd1177     Cd  0.00076420  0.73952812  0.81072822     1.37500
O1178       O  0.97190244  0.69322322  0.83569579    -0.56900
O1179       O  0.04056161  0.69862969  0.79501226    -0.55700
C1180       C  0.96246119  0.79876111  0.80231340     0.78100
O1181       O  0.02975217  0.73539203  0.76215694    -0.58100
O1182       O  0.95534136  0.70552727  0.79185162    -0.56500
O1183       O  0.05335706  0.76108598  0.82845179    -0.56500
O1184       O  0.96135685  0.78153753  0.82569052    -0.55700
C1185       C  0.13642699  0.84501167  0.95643026    -0.01100
C1186       C  0.13187818  0.84551640  0.92533070     0.07500
C1187       C  0.14525890  0.87152289  0.90878900    -0.07100
C1188       C  0.16218713  0.89723502  0.92283543     0.04900
C1189       C  0.16555160  0.89750004  0.95426445    -0.14300
C1190       C  0.15276223  0.87090364  0.97058092    -0.07600
C1191       C  0.11101446  0.82066814  0.91001244     0.05900
C1192       C  0.07748998  0.81963549  0.91670861    -0.08700
C1193       C  0.05603933  0.79963303  0.90052024     0.00900
C1194       C  0.06807122  0.77986177  0.87711127     0.00700
C1195       C  0.10192957  0.77956343  0.87150329    -0.12300
C1196       C  0.12334916  0.79971133  0.88768781     0.01200
C1197       C  0.02148866  0.80248689  0.90641682     0.40500
C1198       C  0.15780477  0.79871511  0.88078899     0.37100
C1199       C  0.12511366  0.81773287  0.97415489     0.36900
C1200       C  0.17478743  0.92337048  0.90442048     0.37600
N1201       N  0.99371294  0.80491570  0.91069918    -0.43200
N1202       N  0.18542574  0.79781430  0.87524454    -0.43600
N1203       N  0.18486962  0.94417054  0.88946591    -0.41000
N1204       N  0.11614919  0.79573303  0.98823643    -0.42400
H1205       H  0.15571760  0.87013030  0.99459078     0.13800
H1206       H  0.14177796  0.87211625  0.88483728     0.10200
H1207       H  0.06779911  0.83572774  0.93362137     0.11300
H1208       H  0.11156497  0.76434774  0.85377600     0.17100
C1209       C  0.09593478  0.83928238  0.58952975    -0.01100
C1210       C  0.11032370  0.86606272  0.57441169     0.07500
C1211       C  0.09986614  0.87332045  0.54543466    -0.07100
C1212       C  0.07566339  0.85454923  0.53144209     0.04900
C1213       C  0.06226505  0.82672165  0.54602393    -0.14300
C1214       C  0.07248327  0.81981662  0.57522738    -0.07600
C1215       C  0.13642334  0.88649459  0.58837847     0.05900
C1216       C  0.16437637  0.87100905  0.59979245    -0.08700
C1217       C  0.18803529  0.88874505  0.61548266     0.00900
C1218       C  0.18495594  0.92287737  0.61847073     0.00700
C1219       C  0.15812451  0.93880345  0.60566840    -0.12300
C1220       C  0.13357106  0.92089066  0.59118630     0.01200
C1221       C  0.21480750  0.87136629  0.62910324     0.40500
C1222       C  0.10472277  0.93808735  0.58138127     0.37100
C1223       C  0.10429584  0.83161442  0.61998893     0.36900
C1224       C  0.06460364  0.86536317  0.50255928     0.37600
N1225       N  0.23618998  0.85755078  0.64025286    -0.43200
N1226       N  0.08154943  0.95186516  0.57367779    -0.43600
N1227       N  0.05576054  0.87460449  0.47958661    -0.41000
N1228       N  0.11106765  0.82547741  0.64437910    -0.42400
H1229       H  0.06218672  0.79901974  0.58703612     0.13800
H1230       H  0.11065175  0.89389951  0.53364195     0.10200
H1231       H  0.16717910  0.84476980  0.59729581     0.11300
H1232       H  0.15536295  0.96500257  0.60857029     0.17100
C1233       C  0.33096387  0.81333018  0.80678545    -0.01100
C1234       C  0.34513664  0.83110015  0.78307635     0.07500
C1235       C  0.37859210  0.82721747  0.77707629    -0.07100
C1236       C  0.39806760  0.80676268  0.79472410     0.04900
C1237       C  0.38413265  0.78963925  0.81898597    -0.14300
C1238       C  0.35047594  0.79299704  0.82464970    -0.07600
C1239       C  0.32612943  0.85560727  0.76560494     0.05900
C1240       C  0.31552550  0.88432601  0.77979559    -0.08700
C1241       C  0.29890279  0.90882266  0.76401362     0.00900
C1242       C  0.29255769  0.90488253  0.73321558     0.00700
C1243       C  0.30311000  0.87594111  0.71910349    -0.12300
C1244       C  0.31959156  0.85140183  0.73500408     0.01200
C1245       C  0.29003867  0.93831315  0.77979156     0.40500
C1246       C  0.32907435  0.82182053  0.71965557     0.37100
C1247       C  0.29641845  0.81559858  0.81306540     0.36900
C1248       C  0.43282176  0.80604663  0.78904151     0.37600
N1249       N  0.28306353  0.96197119  0.79247735    -0.43200
N1250       N  0.33675138  0.79809478  0.70742118    -0.43600
N1251       N  0.46074114  0.80555580  0.78491309    -0.41000
N1252       N  0.26868049  0.81746301  0.81785887    -0.42400
H1253       H  0.33951765  0.78001753  0.84315541     0.13800
H1254       H  0.38970423  0.84106080  0.75948803     0.10200
H1255       H  0.32080590  0.88785969  0.80325280     0.11300
H1256       H  0.29819773  0.87229052  0.69559145     0.17100
C1257       C  0.36445434  0.83770330  0.59781563    -0.01100
C1258       C  0.34655097  0.86150964  0.61396835     0.07500
C1259       C  0.35497257  0.86730649  0.64380784    -0.07100
C1260       C  0.38076315  0.85051435  0.65739421     0.04900
C1261       C  0.39746739  0.82538986  0.64182524    -0.14300
C1262       C  0.38915616  0.81963535  0.61190516    -0.07600
C1263       C  0.31943971  0.88081824  0.60006195     0.05900
C1264       C  0.29429727  0.86419326  0.58496532    -0.08700
C1265       C  0.27011281  0.88131606  0.56936695     0.00900
C1266       C  0.26994209  0.91584490  0.56962098     0.00700
C1267       C  0.29349727  0.93253020  0.58648558    -0.12300
C1268       C  0.31842533  0.91548332  0.60120948     0.01200
C1269       C  0.24568308  0.86290704  0.05328035     0.40500
C1270       C  0.34377014  0.93436496  0.61557685     0.37100
C1271       C  0.35879838  0.83202938  0.56647611     0.36900
C1272       C  0.39087467  0.86145321  0.68651796     0.37600
N1273       N  0.22608142  0.84818683  0.04039283    -0.43200
N1274       N  0.36404772  0.94950994  0.62712268    -0.43600
N1275       N  0.39917063  0.87103868  0.70955074    -0.41000
N1276       N  0.35433562  0.82748810  0.04134732    -0.42400
H1277       H  0.40208840  0.80100048  0.59933764     0.13800
H1278       H  0.34170486  0.88559249  0.65651033     0.10200
H1279       H  0.29396356  0.83764527  0.58479279     0.11300
H1280       H  0.29371108  0.95909709  0.58655930     0.17100
C1281       C  0.13536563  0.63693040  0.87397310    -0.01100
C1282       C  0.12387992  0.63540054  0.90355503     0.07500
C1283       C  0.13223659  0.60834993  0.92126085    -0.07100
C1284       C  0.15225626  0.58329490  0.91017119     0.04900
C1285       C  0.16458336  0.58515557  0.88071788    -0.14300
C1286       C  0.15554738  0.61204763  0.86288490    -0.07600
C1287       C  0.10319878  0.66164685  0.91671418     0.05900
C1288       C  0.07152852  0.66681737  0.90568776    -0.08700
C1289       C  0.05017100  0.68881649  0.91977663     0.00900
C1290       C  0.06061048  0.70628219  0.94525291     0.00700
C1291       C  0.09277244  0.70206948  0.95539487    -0.12300
C1292       C  0.11398743  0.68002483  0.94142810     0.01200
C1293       C  0.01691481  0.69077361  0.90928589     0.40500
C1294       C  0.14661363  0.67628649  0.95313104     0.37100
C1295       C  0.12740563  0.66413007  0.85477541     0.36900
C1296       C  0.15865655  0.55563465  0.92928462     0.37600
N1297       N  0.99012161  0.69223714  0.90121716    -0.43200
N1298       N  0.17273123  0.67317178  0.96253063    -0.43600
N1299       N  0.16348644  0.53348993  0.94472595    -0.41000
N1300       N  0.12100912  0.68587043  0.83934005    -0.42400
H1301       H  0.16450703  0.61389947  0.84021622     0.13800
H1302       H  0.12289980  0.60676452  0.94382659     0.10200
H1303       H  0.06300964  0.65255226  0.88684961     0.11300
H1304       H  0.10116060  0.71551034  0.97478474     0.17100
C1305       C  0.34307138  0.61608081  0.80245918    -0.01100
C1306       C  0.33997879  0.62729667  0.77290960     0.07500
C1307       C  0.31500228  0.61436684  0.75498015    -0.07100
C1308       C  0.29290438  0.59101739  0.76615045     0.04900
C1309       C  0.29547057  0.58020729  0.79607504    -0.14300
C1310       C  0.32079252  0.59313012  0.81381856    -0.07600
C1311       C  0.36362434  0.65105819  0.75973517     0.05900
C1312       C  0.38300276  0.64088059  0.73564987    -0.08700
C1313       C  0.40561699  0.66215233  0.72238633     0.00900
C1314       C  0.40915323  0.69450525  0.73322826     0.00700
C1315       C  0.39025590  0.70451521  0.75773285    -0.12300
C1316       C  0.36730194  0.68329875  0.77074217     0.01200
C1317       C  0.42547454  0.64978895  0.69820176     0.40500
C1318       C  0.34686325  0.69568512  0.79444994     0.37100
C1319       C  0.36973122  0.62679711  0.82115532     0.36900
C1320       C  0.26801800  0.57879134  0.74625686     0.37600
N1321       N  0.44144586  0.63990017  0.67887600    -0.43200
N1322       N  0.33052848  0.70576826  0.81342485    -0.43600
N1323       N  0.24819480  0.56899950  0.73017815    -0.41000
N1324       N  0.39118590  0.63549330  0.83595649    -0.42400
H1325       H  0.32359116  0.58497667  0.83665823     0.13800
H1326       H  0.31281570  0.62255616  0.73208256     0.10200
H1327       H  0.38055258  0.61607590  0.72728182     0.11300
H1328       H  0.39250995  0.72936908  0.76602425     0.17100
C1329       C  0.11236950  0.65234197  0.74241624    -0.01100
C1330       C  0.11419598  0.65923568  0.71166613     0.07500
C1331       C  0.09443638  0.68410477  0.69988946    -0.07100
C1332       C  0.07275530  0.70176801  0.71810573     0.04900
C1333       C  0.06993118  0.69401203  0.74878755    -0.14300
C1334       C  0.09033533  0.66948982  0.76052074    -0.07600
C1335       C  0.13435497  0.63894745  0.69104662     0.05900
C1336       C  0.11823408  0.61845452  0.67077903    -0.08700
C1337       C  0.13573318  0.59756515  0.65184213     0.00900
C1338       C  0.17031901  0.59685642  0.65289329     0.00700
C1339       C  0.18650859  0.61771589  0.67300634    -0.12300
C1340       C  0.16885196  0.63887460  0.69179842     0.01200
C1341       C  0.11736053  0.57592869  0.63266377     0.40500
C1342       C  0.18654252  0.66068397  0.71130645     0.37100
C1343       C  0.13211457  0.62709174  0.75583610     0.36900
C1344       C  0.05350373  0.72722093  0.70444547     0.37600
N1345       N  0.10264442  0.55850966  0.61737456    -0.43200
N1346       N  0.20061084  0.67824021  0.72696480    -0.43600
N1347       N  0.03825869  0.74773030  0.69343063    -0.41000
N1348       N  0.14804829  0.60705843  0.76675722    -0.42400
H1349       H  0.08892310  0.66333293  0.78399272     0.13800
H1350       H  0.09576378  0.68950722  0.67624931     0.10200
H1351       H  0.09172513  0.61827374  0.67022481     0.11300
H1352       H  0.21299478  0.61773504  0.67384195     0.17100
C1353       C  0.33207903  0.61740451  0.52641991    -0.01100
C1354       C  0.32136003  0.62936054  0.49872075     0.07500
C1355       C  0.28969272  0.62173362  0.48897509    -0.07100
C1356       C  0.26859858  0.60249812  0.50651397     0.04900
C1357       C  0.27906025  0.59098911  0.53467872    -0.14300
C1358       C  0.31092595  0.59875334  0.54419151    -0.07600
C1359       C  0.34318482  0.64923205  0.97933418     0.05900
C1360       C  0.36438496  0.63316312  0.95965663    -0.08700
C1361       C  0.38553778  0.65091017  0.94105684     0.00900
C1362       C  0.38565454  0.68558328  0.94192373     0.00700
C1363       C  0.36474895  0.70157849  0.96211641    -0.12300
C1364       C  0.34354217  0.68370752  0.98066199     0.01200
C1365       C  0.40776823  0.63279057  0.92223631     0.40500
C1366       C  0.32241042  0.70116198  0.50096769     0.37100
C1367       C  0.36487007  0.62355972  0.53687494     0.36900
C1368       C  0.23637136  0.59548962  0.49513935     0.37600
N1369       N  0.42568396  0.61825081  0.90727781    -0.43200
N1370       N  0.30547868  0.71513227  0.51726769    -0.43600
N1371       N  0.21060654  0.58992377  0.98581210    -0.41000
N1372       N  0.39118767  0.62826156  0.54525823    -0.42400
H1373       H  0.31966815  0.58973483  0.56543928     0.13800
H1374       H  0.28152763  0.63071718  0.96752176     0.10200
H1375       H  0.36452062  0.60663142  0.95898818     0.11300
H1376       H  0.36462040  0.72808880  0.96312099     0.17100
C1377       C  0.31800626  0.38212188  0.86168439    -0.01100
C1378       C  0.33609307  0.38381751  0.88838215     0.07500
C1379       C  0.33122497  0.41069745  0.90747337    -0.07100
C1380       C  0.30918509  0.43577192  0.90019520     0.04900
C1381       C  0.29209644  0.43472935  0.87282558    -0.14300
C1382       C  0.29663989  0.40748080  0.85406299    -0.07600
C1383       C  0.36092782  0.35842678  0.89613433     0.05900
C1384       C  0.38626114  0.35165461  0.87582896    -0.08700
C1385       C  0.41012467  0.32800788  0.88201423     0.00900
C1386       C  0.40928011  0.31074511  0.90935586     0.00700
C1387       C  0.38397904  0.31778360  0.92972382    -0.12300
C1388       C  0.35999180  0.34118321  0.92337116     0.01200
C1389       C  0.43541567  0.32272409  0.86005264     0.40500
C1390       C  0.33437865  0.34654626  0.94503048     0.37100
C1391       C  0.32046188  0.35431671  0.84190175     0.36900
C1392       C  0.30538680  0.46249596  0.92095793     0.37600
N1393       N  0.45557873  0.31863978  0.84230517    -0.43200
N1394       N  0.31398244  0.35087398  0.96250413    -0.43600
N1395       N  0.30236544  0.48374687  0.93780064    -0.41000
N1396       N  0.32243573  0.33205038  0.82604874    -0.42400
H1397       H  0.28331028  0.40581578  0.83328319     0.13800
H1398       H  0.34509166  0.41237625  0.92794775     0.10200
H1399       H  0.38755083  0.36514521  0.85507533     0.11300
H1400       H  0.38276118  0.30488296  0.95078846     0.17100
C1401       C  0.37606516  0.13536088  0.98852277    -0.01100
C1402       C  0.37730458  0.10616825  0.97163502     0.07500
C1403       C  0.40229319  0.10227775  0.95047113    -0.07100
C1404       C  0.42546847  0.12710208  0.94560320     0.04900
C1405       C  0.42371399  0.15669021  0.96196293    -0.14300
C1406       C  0.39930933  0.16012162  0.98377169    -0.07600
C1407       C  0.35225203  0.07987593  0.97525367     0.05900
C1408       C  0.33069078  0.07311271  0.95171091    -0.08700
C1409       C  0.30493766  0.05055744  0.95515650     0.00900
C1410       C  0.30038178  0.03430102  0.98273438     0.00700
C1411       C  0.32310653  0.04004825  0.00569875    -0.12300
C1412       C  0.34887785  0.06233709  0.00212296     0.01200
C1413       C  0.28294653  0.04576681  0.93043003     0.40500
C1414       C  0.37156318  0.06687862  0.02639029     0.37100
C1415       C  0.35025229  0.14110742  0.00988344     0.36900
C1416       C  0.45127287  0.12124502  0.92422590     0.37600
N1417       N  0.26540936  0.04199367  0.91052016    -0.43200
N1418       N  0.38975189  0.07061592  0.54580143    -0.43600
N1419       N  0.47206655  0.11650241  0.90723309    -0.41000
N1420       N  0.32955499  0.14563815  0.02701132    -0.42400
H1421       H  0.39751439  0.18277147  0.99625315     0.13800
H1422       H  0.40364057  0.07978881  0.93769561     0.10200
H1423       H  0.33340277  0.08625757  0.93086885     0.11300
H1424       H  0.32054743  0.02738423  0.02680237     0.17100
C1425       C  0.39504227  0.37788459  0.64052072    -0.01100
C1426       C  0.37550534  0.38244749  0.61503501     0.07500
C1427       C  0.38144149  0.36315549  0.58966009    -0.07100
C1428       C  0.40631836  0.33950225  0.58941749     0.04900
C1429       C  0.42621746  0.33522273  0.61484085    -0.14300
C1430       C  0.41999776  0.35447860  0.64023887    -0.07600
C1431       C  0.34990361  0.40828754  0.61382751     0.05900
C1432       C  0.35420317  0.43441450  0.59395163    -0.08700
C1433       C  0.33087986  0.45932033  0.59173275     0.00900
C1434       C  0.30256458  0.45856583  0.60989039     0.00700
C1435       C  0.29848917  0.43267736  0.63017269    -0.12300
C1436       C  0.32160642  0.40737907  0.63193964     0.01200
C1437       C  0.33695410  0.48566821  0.57095751     0.40500
C1438       C  0.31504520  0.38000127  0.65141183     0.37100
C1439       C  0.39044101  0.39740038  0.66704038     0.36900
C1440       C  0.40974603  0.31903774  0.56335936     0.37600
N1441       N  0.34184054  0.50674782  0.55429148    -0.43200
N1442       N  0.30976361  0.35798285  0.66692914    -0.43600
N1443       N  0.41219201  0.30252381  0.54250815    -0.41000
N1444       N  0.38662695  0.41288849  0.68836476    -0.42400
H1445       H  0.43493205  0.35148732  0.65996574     0.13800
H1446       H  0.36635287  0.36641568  0.57006713     0.10200
H1447       H  0.37594062  0.43532926  0.58008930     0.11300
H1448       H  0.27656878  0.43148726  0.64376120     0.17100
C1449       C  0.41210614  0.13936343  0.67064469    -0.01100
C1450       C  0.39555690  0.12445570  0.64665521     0.07500
C1451       C  0.40095572  0.13601472  0.61765729    -0.07100
C1452       C  0.42194988  0.16248452  0.61229821     0.04900
C1453       C  0.43807242  0.17803313  0.63646562    -0.14300
C1454       C  0.43315636  0.16577353  0.66539617    -0.07600
C1455       C  0.37065147  0.09851467  0.65157972     0.05900
C1456       C  0.34317288  0.10605664  0.66891087    -0.08700
C1457       C  0.31880699  0.08277498  0.67416882     0.00900
C1458       C  0.32111775  0.05131275  0.66110622     0.00700
C1459       C  0.34836997  0.04393087  0.64320401    -0.12300
C1460       C  0.37337290  0.06704422  0.63883180     0.01200
C1461       C  0.29146966  0.09221322  0.69269840     0.40500
C1462       C  0.40234608  0.05747613  0.62261706     0.37100
C1463       C  0.40791179  0.12795665  0.70087545     0.36900
C1464       C  0.42627515  0.17283085  0.58174286     0.37600
N1465       N  0.26970120  0.09972551  0.70771894    -0.43200
N1466       N  0.42579976  0.04982915  0.60995729    -0.43600
N1467       N  0.42968518  0.18096248  0.55721683    -0.41000
N1468       N  0.40447447  0.11889124  0.72511644    -0.42400
H1469       H  0.44544139  0.17711542  0.68415373     0.13800
H1470       H  0.38811073  0.12472046  0.59916717     0.10200
H1471       H  0.34079980  0.13035172  0.67846102     0.11300
H1472       H  0.35065406  0.01975808  0.63342963     0.17100
C1473       C  0.84040485  0.93598107  0.98032745    -0.01100
C1474       C  0.84823997  0.90999016  0.96077800     0.07500
C1475       C  0.83014882  0.90635941  0.93448390    -0.07100
C1476       C  0.80497518  0.92807267  0.92722211     0.04900
C1477       C  0.79677316  0.95398269  0.94696877    -0.14300
C1478       C  0.81486269  0.95747665  0.97337122    -0.07600
C1479       C  0.87390751  0.88529043  0.46788745     0.05900
C1480       C  0.87153196  0.86766222  0.49464509    -0.08700
C1481       C  0.89397383  0.84303712  0.50170154     0.00900
C1482       C  0.91962785  0.83540022  0.48161533     0.00700
C1483       C  0.92185951  0.85293045  0.95472596    -0.12300
C1484       C  0.89939832  0.87760782  0.94773516     0.01200
C1485       C  0.88906464  0.82529805  0.52919609     0.40500
C1486       C  0.90327782  0.89479397  0.91981058     0.37100
C1487       C  0.85838563  0.94148436  0.50752347     0.36900
C1488       C  0.78790825  0.92241683  0.89954199     0.37600
N1489       N  0.88494791  0.81107703  0.55119967    -0.43200
N1490       N  0.90632818  0.90832853  0.89731398    -0.43600
N1491       N  0.77456936  0.91757256  0.87724876    -0.41000
N1492       N  0.87255533  0.94600238  0.52943544    -0.42400
H1493       H  0.80920262  0.97725408  0.98866488     0.13800
H1494       H  0.83544150  0.88605786  0.91965144     0.10200
H1495       H  0.85150930  0.87266851  0.50986847     0.11300
H1496       H  0.94137975  0.84752718  0.93909762     0.17100
C1497       C  0.60810240  0.90380959  0.93307519    -0.01100
C1498       C  0.58701568  0.90346861  0.90824737     0.07500
C1499       C  0.59033484  0.92824174  0.88667975    -0.07100
C1500       C  0.61455017  0.95258311  0.88917939     0.04900
C1501       C  0.63583926  0.95283895  0.91403373    -0.14300
C1502       C  0.63185016  0.92840555  0.93589819    -0.07600
C1503       C  0.56227315  0.87679514  0.90404944     0.05900
C1504       C  0.53822654  0.87139961  0.92598126    -0.08700
C1505       C  0.51579696  0.84538396  0.92363629     0.00900
C1506       C  0.51680197  0.82423778  0.89862592     0.00700
C1507       C  0.54064393  0.83011870  0.87651161    -0.12300
C1508       C  0.56320042  0.85585527  0.87905228     0.01200
C1509       C  0.49208823  0.84125632  0.94722162     0.40500
C1510       C  0.58782671  0.85951039  0.85615466     0.37100
C1511       C  0.60695763  0.87818509  0.95523075     0.36900
C1512       C  0.61680940  0.97685665  0.86588717     0.37600
N1513       N  0.47317967  0.83799225  0.46623467    -0.43200
N1514       N  0.60755894  0.86249253  0.83782227    -0.43600
N1515       N  0.61861179  0.99620532  0.84711596    -0.41000
N1516       N  0.60599673  0.85751768  0.97284718    -0.42400
H1517       H  0.64800485  0.92786791  0.95502480     0.13800
H1518       H  0.57411392  0.92834140  0.86759120     0.10200
H1519       H  0.53716113  0.88746859  0.94517395     0.11300
H1520       H  0.54206681  0.81426581  0.85719354     0.17100
C1521       C  0.61466825  0.20035719  0.53115084    -0.01100
C1522       C  0.60721847  0.16683326  0.52724980     0.07500
C1523       C  0.57878712  0.15409465  0.54040296    -0.07100
C1524       C  0.55802420  0.17391757  0.55732128     0.04900
C1525       C  0.56555146  0.20736194  0.56157462    -0.14300
C1526       C  0.59364977  0.22041632  0.54797546    -0.07600
C1527       C  0.62811760  0.14435906  0.50927600     0.05900
C1528       C  0.66012091  0.13731549  0.51856343    -0.08700
C1529       C  0.67926259  0.11400230  0.50346068     0.00900
C1530       C  0.66617396  0.09695659  0.47871416     0.00700
C1531       C  0.63450989  0.10491493  0.46906139    -0.12300
C1532       C  0.61556887  0.12819424  0.48398640     0.01200
C1533       C  0.71241991  0.10891144  0.51331300     0.40500
C1534       C  0.58318913  0.13502192  0.47289364     0.37100
C1535       C  0.64366983  0.21461622  0.51813746     0.36900
C1536       C  0.52864956  0.15944254  0.56954813     0.37600
N1537       N  0.73906989  0.10511621  0.52115182    -0.43200
N1538       N  0.55719756  0.14037301  0.46407276    -0.43600
N1539       N  0.50509273  0.14787912  0.57929180    -0.41000
N1540       N  0.66700559  0.22596424  0.50775956    -0.42400
H1541       H  0.59974886  0.24598282  0.55127196     0.13800
H1542       H  0.57282646  0.12839507  0.53747336     0.10200
H1543       H  0.67000333  0.14974333  0.53793150     0.11300
H1544       H  0.62413398  0.09249904  0.94994034     0.17100
C1545       C  0.85488702  0.91153305  0.76400493    -0.01100
C1546       C  0.87384803  0.90946755  0.79014013     0.07500
C1547       C  0.86846650  0.93239591  0.81299520    -0.07100
C1548       C  0.84398884  0.95635227  0.81060127     0.04900
C1549       C  0.82440020  0.95797263  0.78462102    -0.14300
C1550       C  0.83071748  0.93558358  0.76142541    -0.07600
C1551       C  0.89805553  0.88251191  0.79450753     0.05900
C1552       C  0.92368208  0.87831952  0.77392059    -0.08700
C1553       C  0.94504478  0.85150189  0.77581267     0.00900
C1554       C  0.94149692  0.82848647  0.79921358     0.00700
C1555       C  0.91648920  0.83350956  0.82036255    -0.12300
C1556       C  0.89476126  0.85983610  0.81804224     0.01200
C1557       C  0.96999744  0.84825444  0.75320921     0.40500
C1558       C  0.86819237  0.86198301  0.83922379     0.37100
C1559       C  0.85870516  0.88830509  0.73997009     0.36900
C1560       C  0.83952417  0.97837888  0.83543064     0.37600
N1561       N  0.98983713  0.84571863  0.73492205    -0.43200
N1562       N  0.84684169  0.86369100  0.85611964    -0.43600
N1563       N  0.83629520  0.99573777  0.85560854    -0.41000
N1564       N  0.86185694  0.86968754  0.72073450    -0.42400
H1565       H  0.81620632  0.93626419  0.74127992     0.13800
H1566       H  0.88312898  0.93119786  0.83304772     0.10200
H1567       H  0.92657927  0.89576332  0.75588786     0.11300
H1568       H  0.91314348  0.81620263  0.83843919     0.17100
C1569       C  0.55722644  0.88092560  0.75246534    -0.01100
C1570       C  0.58407985  0.88898365  0.73404593     0.07500
C1571       C  0.58926730  0.87121274  0.70780127    -0.07100
C1572       C  0.56798362  0.84613631  0.69928570     0.04900
C1573       C  0.54020869  0.83870144  0.71695075    -0.14300
C1574       C  0.53543939  0.85602545  0.74375480    -0.07600
C1575       C  0.60839058  0.91457909  0.74201820     0.05900
C1576       C  0.63036766  0.90833279  0.76515419    -0.08700
C1577       C  0.65662219  0.92950664  0.77075888     0.00900
C1578       C  0.66122550  0.95791821  0.75296396     0.00700
C1579       C  0.63861510  0.96441903  0.73018312    -0.12300
C1580       C  0.61241533  0.94307782  0.72463337     0.01200
C1581       C  0.67909235  0.92038644  0.79408847     0.40500
C1582       C  0.58992106  0.95083151  0.70093866     0.37100
C1583       C  0.55134542  0.89821114  0.78003926     0.36900
C1584       C  0.57625826  0.82753759  0.67295281     0.37600
N1585       N  0.69709261  0.91293545  0.81273608    -0.43200
N1586       N  0.57183964  0.95703130  0.68198435    -0.43600
N1587       N  0.58300805  0.81249353  0.65196926    -0.41000
N1588       N  0.54669494  0.91204781  0.80215984    -0.42400
H1589       H  0.51447001  0.85045960  0.75769667     0.13800
H1590       H  0.61048968  0.87666305  0.69410467     0.10200
H1591       H  0.62767281  0.88614174  0.77817756     0.11300
H1592       H  0.64140527  0.98617299  0.71658553     0.17100
C1593       C  0.58358991  0.14808724  0.86158968    -0.01100
C1594       C  0.61501807  0.14844721  0.87448437     0.07500
C1595       C  0.62143081  0.16988209  0.89818098    -0.07100
C1596       C  0.59677258  0.19016378  0.90961207     0.04900
C1597       C  0.56504331  0.18924804  0.89715431    -0.14300
C1598       C  0.55899419  0.16850412  0.87285586    -0.07600
C1599       C  0.64183142  0.12785680  0.86233423     0.05900
C1600       C  0.66593629  0.14275688  0.84469382    -0.08700
C1601       C  0.68906184  0.12390089  0.82933312     0.00900
C1602       C  0.68873756  0.08941593  0.83203154     0.00700
C1603       C  0.66607609  0.07473672  0.85150000    -0.12300
C1604       C  0.64237497  0.09358794  0.86623907     0.01200
C1605       C  0.71259533  0.14055584  0.81066059     0.40500
C1606       C  0.61790418  0.07717906  0.88407213     0.37100
C1607       C  0.57610734  0.12700786  0.83668226     0.36900
C1608       C  0.60489140  0.21253331  0.93342019     0.37600
N1609       N  0.73143746  0.15385829  0.79564347    -0.43200
N1610       N  0.59810105  0.06401624  0.89813602    -0.43600
N1611       N  0.61119747  0.23071859  0.95234200    -0.41000
N1612       N  0.57017242  0.11000545  0.81677686    -0.42400
H1613       H  0.53476642  0.16758586  0.86315287     0.13800
H1614       H  0.64573208  0.17072689  0.90774636     0.10200
H1615       H  0.66579474  0.16913013  0.84190409     0.11300
H1616       H  0.66560486  0.04833050  0.85380104     0.17100
C1617       C  0.62391839  0.58842372  0.87978313    -0.01100
C1618       C  0.59653528  0.58935390  0.86063890     0.07500
C1619       C  0.59374068  0.56556700  0.83819064    -0.07100
C1620       C  0.61722044  0.54081776  0.83499883     0.04900
C1621       C  0.64386024  0.53911081  0.85494933    -0.14300
C1622       C  0.64680796  0.56302951  0.87724821    -0.07600
C1623       C  0.57047335  0.61471791  0.86362755     0.05900
C1624       C  0.56391828  0.63565467  0.83952545    -0.08700
C1625       C  0.53968671  0.65989227  0.84154005     0.00900
C1626       C  0.52136861  0.66347593  0.86811749     0.00700
C1627       C  0.52764078  0.64214747  0.89200403    -0.12300
C1628       C  0.55162434  0.61780580  0.88988740     0.01200
C1629       C  0.53527266  0.68168377  0.81654719     0.40500
C1630       C  0.55592609  0.59581557  0.91476060     0.37100
C1631       C  0.62993749  0.61410193  0.90121189     0.36900
C1632       C  0.61294553  0.51702626  0.81150296     0.37600
N1633       N  0.53179098  0.69925589  0.79658225    -0.43200
N1634       N  0.55952822  0.57824862  0.93470643    -0.43600
N1635       N  0.60952924  0.49800843  0.79263364    -0.41000
N1636       N  0.63489936  0.63474919  0.91828749    -0.42400
H1637       H  0.66773337  0.56258884  0.89201911     0.13800
H1638       H  0.57299922  0.56622742  0.82321509     0.10200
H1639       H  0.57817030  0.63338763  0.81923302     0.11300
H1640       H  0.51354038  0.64430907  0.91239913     0.17100
C1641       C  0.85246024  0.55688243  0.80844209    -0.01100
C1642       C  0.85247104  0.58614451  0.82519158     0.07500
C1643       C  0.82627689  0.59248305  0.84454442    -0.07100
C1644       C  0.80045521  0.57017631  0.84763077     0.04900
C1645       C  0.80050270  0.54064264  0.83104800    -0.14300
C1646       C  0.82659184  0.53450986  0.81141653    -0.07600
C1647       C  0.87900726  0.61098333  0.82234709     0.05900
C1648       C  0.88342383  0.62715476  0.79508895    -0.08700
C1649       C  0.90714039  0.65174510  0.79176243     0.00900
C1650       C  0.92716332  0.66077199  0.81626124     0.00700
C1651       C  0.92280090  0.64413140  0.84345727    -0.12300
C1652       C  0.89903944  0.61957742  0.84666557     0.01200
C1653       C  0.91014797  0.66692962  0.76282585     0.40500
C1654       C  0.89598441  0.60317670  0.87503857     0.37100
C1655       C  0.87913046  0.54888530  0.78864407     0.36900
C1656       C  0.77377286  0.57889371  0.86723939     0.37600
N1657       N  0.91231435  0.67886448  0.73950880    -0.43200
N1658       N  0.89354461  0.59000964  0.89776887    -0.43600
N1659       N  0.75233586  0.58585066  0.88287558    -0.41000
N1660       N  0.90049439  0.54242371  0.77276363    -0.42400
H1661       H  0.82710246  0.51192586  0.79873709     0.13800
H1662       H  0.82587171  0.61517638  0.85707868     0.10200
H1663       H  0.86794617  0.62074437  0.77635738     0.11300
H1664       H  0.93786978  0.65042814  0.86248056     0.17100
C1665       C  0.62389783  0.36702114  0.77592277    -0.01100
C1666       C  0.63328703  0.36082605  0.74618622     0.07500
C1667       C  0.66231225  0.37488476  0.73529329    -0.07100
C1668       C  0.68183869  0.39497770  0.75336595     0.04900
C1669       C  0.67230391  0.40148498  0.78316131    -0.14300
C1670       C  0.64340555  0.38693946  0.79404224    -0.07600
C1671       C  0.61198490  0.34219035  0.72527146     0.05900
C1672       C  0.59991409  0.35849963  0.70016162    -0.08700
C1673       C  0.57925699  0.34270714  0.67993131     0.00900
C1674       C  0.57008009  0.30964468  0.68458892     0.00700
C1675       C  0.58232919  0.29322425  0.70974812    -0.12300
C1676       C  0.60339630  0.30905232  0.72982664     0.01200
C1677       C  0.56704169  0.36164749  0.65523228     0.40500
C1678       C  0.61655201  0.29058791  0.75444953     0.37100
C1679       C  0.59370223  0.35437275  0.78810989     0.36900
C1680       C  0.71143278  0.40830052  0.74057167     0.37600
N1681       N  0.55722299  0.37692508  0.63550609    -0.43200
N1682       N  0.62706356  0.27588729  0.77426127    -0.43600
N1683       N  0.73513115  0.41882389  0.73014157    -0.41000
N1684       N  0.56964240  0.34409497  0.79802713    -0.42400
H1685       H  0.63545561  0.39172720  0.81668518     0.13800
H1686       H  0.66957555  0.37034956  0.71240748     0.10200
H1687       H  0.60633499  0.38397829  0.69657484     0.11300
H1688       H  0.57584423  0.26781896  0.71353388     0.17100
C1689       C  0.61872328  0.58898938  0.65176662    -0.01100
C1690       C  0.60591589  0.61097845  0.63048103     0.07500
C1691       C  0.61663271  0.60857349  0.60086358    -0.07100
C1692       C  0.63972478  0.58512643  0.59218749     0.04900
C1693       C  0.65314312  0.56336935  0.61355618    -0.04700
C1694       C  0.64205201  0.56558922  0.64321271    -0.07600
C1695       C  0.58283553  0.63785159  0.63876017     0.05900
C1696       C  0.59265877  0.66108461  0.65998330    -0.08700
C1697       C  0.57239373  0.68734486  0.66784828     0.00900
C1698       C  0.54134382  0.69089040  0.65438571     0.00700
C1699       C  0.53184593  0.66812538  0.63253479    -0.12300
C1700       C  0.55217848  0.64176931  0.62472101     0.01200
C1701       C  0.58473028  0.71094277  0.68901344     0.40500
C1702       C  0.54067594  0.61860927  0.60278132     0.37100
C1703       C  0.60813451  0.58970979  0.68249023     0.36900
C1704       C  0.64947485  0.58479756  0.56123261     0.37600
N1705       N  0.59471670  0.72992007  0.70586338    -0.43200
N1706       N  0.53156154  0.60009083  0.58511657    -0.43600
N1707       N  0.65713932  0.58469330  0.53638232    -0.41000
N1708       N  0.59978575  0.59025182  0.70715254    -0.42400
H1709       H  0.65169669  0.54905165  0.65991141     0.13800
H1710       H  0.60733688  0.62565143  0.58443166     0.10200
H1711       H  0.61655467  0.65894906  0.67017751     0.11300
H1712       H  0.50810979  0.67039988  0.62207835     0.17100
C1713       C  0.89131633  0.63733763  0.50919877    -0.01100
C1714       C  0.88379270  0.62832442  0.53878028     0.07500
C1715       C  0.90141389  0.64298622  0.56213740    -0.07100
C1716       C  0.92479189  0.66751289  0.55659025     0.04900
C1717       C  0.93075343  0.67816402  0.52704053    -0.14300
C1718       C  0.91430039  0.66209736  0.50364017    -0.07600
C1719       C  0.85664357  0.60497036  0.54589638     0.05900
C1720       C  0.85720190  0.57293418  0.53437005    -0.08700
C1721       C  0.83177935  0.55069970  0.54048447     0.00900
C1722       C  0.80545792  0.56016295  0.55898669     0.00700
C1723       C  0.80498017  0.59211983  0.57054751    -0.12300
C1724       C  0.82992795  0.61453575  0.56389864     0.01200
C1725       C  0.83406097  0.51791073  0.52866265     0.40500
C1726       C  0.82707699  0.64752752  0.57519831     0.37100
C1727       C  0.87513488  0.62227492  0.48410897     0.36900
C1728       C  0.94181322  0.68139099  0.58174984     0.37600
N1729       N  0.83579943  0.49160890  0.01920363    -0.43200
N1730       N  0.82484913  0.67398666  0.58419017    -0.43600
N1731       N  0.95553642  0.69230652  0.60198187    -0.41000
N1732       N  0.86241690  0.60995787  0.46399737    -0.42400
H1733       H  0.91896469  0.66920414  0.48074397     0.13800
H1734       H  0.89646536  0.63556753  0.58490558     0.10200
H1735       H  0.87768542  0.56519067  0.52078198     0.11300
H1736       H  0.78482469  0.59973960  0.58461945     0.17100
C1737       C  0.60900061  0.39697461  0.54868603    -0.01100
C1738       C  0.61736518  0.37630480  0.52477535     0.07500
C1739       C  0.64864558  0.37880953  0.51199013    -0.07100
C1740       C  0.67161235  0.40142657  0.52289691     0.04900
C1741       C  0.66331500  0.42198461  0.54712173    -0.14300
C1742       C  0.63197851  0.41918344  0.55985882    -0.07600
C1743       C  0.59302622  0.35352238  0.01158543     0.05900
C1744       C  0.57960592  0.36139677  0.98386738    -0.08700
C1745       C  0.55592713  0.34136355  0.97066999     0.00900
C1746       C  0.54606718  0.31187832  0.98482176     0.00700
C1747       C  0.55910518  0.30445310  0.01297592    -0.12300
C1748       C  0.58205644  0.32517233  0.52657724     0.01200
C1749       C  0.54147216  0.35254633  0.94316972     0.40500
C1750       C  0.59402237  0.31689639  0.55585751     0.37100
C1751       C  0.57640850  0.39690426  0.56106925     0.36900
C1752       C  0.70365665  0.40227809  0.50941335     0.37600
N1753       N  0.52978200  0.36182436  0.92129172    -0.43200
N1754       N  0.60331828  0.31038870  0.57945825    -0.43600
N1755       N  0.72935465  0.40286633  0.49860723    -0.41000
N1756       N  0.55010765  0.39688463  0.57059917    -0.42400
H1757       H  0.62506756  0.43499088  0.57824330     0.13800
H1758       H  0.65507094  0.36308935  0.99340052     0.10200
H1759       H  0.58724057  0.38375712  0.97275524     0.11300
H1760       H  0.55172387  0.28214268  0.02420449     0.17100
C1761       C  0.05910974  0.37237448  0.76044043    -0.01100
C1762       C  0.07870687  0.37204716  0.78616449     0.07500
C1763       C  0.07526712  0.34622813  0.80659244    -0.07100
C1764       C  0.05323267  0.32042804  0.80131165     0.04900
C1765       C  0.03414042  0.32025345  0.77504528    -0.14300
C1766       C  0.03731720  0.34659318  0.75500586    -0.07600
C1767       C  0.10304443  0.39834050  0.79207962     0.05900
C1768       C  0.09621493  0.42172481  0.81404218    -0.08700
C1769       C  0.11894750  0.44623686  0.82103465     0.00900
C1770       C  0.14956322  0.44728964  0.80626212     0.00700
C1771       C  0.15580928  0.42461744  0.78338496    -0.12300
C1772       C  0.13285657  0.40023592  0.77625662     0.01200
C1773       C  0.10985900  0.47052838  0.84293160     0.40500
C1774       C  0.14074511  0.37674102  0.75330635     0.37100
C1775       C  0.06063889  0.39917732  0.73951474     0.36900
C1776       C  0.05184833  0.29398299  0.82260684     0.37600
N1777       N  0.10261030  0.49016944  0.86031746    -0.43200
N1778       N  0.14689111  0.35785999  0.73490238    -0.43600
N1779       N  0.05097686  0.27287224  0.83978926    -0.41000
N1780       N  0.06177539  0.42071677  0.72279922    -0.42400
H1781       H  0.02257647  0.34717575  0.73497247     0.13800
H1782       H  0.09025194  0.34599336  0.82648065     0.10200
H1783       H  0.07300713  0.42079934  0.82574996     0.11300
H1784       H  0.17910077  0.42516021  0.77181580     0.17100
C1785       C  0.07730216  0.14137363  0.68999201    -0.01100
C1786       C  0.08280184  0.11523812  0.71003615     0.07500
C1787       C  0.06344406  0.11302965  0.73577890    -0.07100
C1788       C  0.03945173  0.13642927  0.74213866     0.04900
C1789       C  0.03397130  0.16281986  0.72225184    -0.14300
C1790       C  0.05278520  0.16455037  0.69602761    -0.07600
C1791       C  0.10975953  0.09101664  0.70580440     0.05900
C1792       C  0.13375909  0.08810447  0.72803075    -0.08700
C1793       C  0.15979418  0.06597763  0.72507518     0.00900
C1794       C  0.16239278  0.04634574  0.69923771     0.00700
C1795       C  0.13799730  0.04887530  0.67729400    -0.12300
C1796       C  0.11163379  0.07045634  0.68057929     0.01200
C1797       C  0.18401374  0.06495032  0.74838149     0.40500
C1798       C  0.08629335  0.07021898  0.65824487     0.37100
C1799       C  0.09774158  0.14604902  0.66404308     0.36900
C1800       C  0.02111181  0.13269387  0.76949237     0.37600
N1801       N  0.20332256  0.06427171  0.76717040    -0.43200
N1802       N  0.06597594  0.07002838  0.64035727    -0.43600
N1803       N  0.00660556  0.12982483  0.79152276    -0.41000
N1804       N  0.11416549  0.14966997  0.64325669    -0.42400
H1805       H  0.04940831  0.18492539  0.68089565     0.13800
H1806       H  0.06748575  0.09309052  0.75129909     0.10200
H1807       H  0.13235994  0.10354344  0.74765118     0.11300
H1808       H  0.13925799  0.03355602  0.65758552     0.17100
C1809       C  0.81668189  0.09152075  0.83186467    -0.01100
C1810       C  0.81741579  0.12571797  0.83609064     0.07500
C1811       C  0.79387560  0.14036346  0.85453177    -0.07100
C1812       C  0.77098332  0.12121125  0.87006643     0.04900
C1813       C  0.77140607  0.08676335  0.86712147    -0.14300
C1814       C  0.79362898  0.07241015  0.84718506    -0.07600
C1815       C  0.84301915  0.14648498  0.82201281     0.05900
C1816       C  0.83501765  0.16544558  0.79708744    -0.08700
C1817       C  0.85867372  0.18498317  0.78300615     0.00900
C1818       C  0.89108072  0.18588106  0.79398190     0.00700
C1819       C  0.89880614  0.16739966  0.81936531    -0.12300
C1820       C  0.87517353  0.14766737  0.83328033     0.01200
C1821       C  0.84869767  0.20485907  0.75808008     0.40500
C1822       C  0.88443103  0.12883687  0.85911794     0.37100
C1823       C  0.83978089  0.07551517  0.81237321     0.36900
C1824       C  0.74688726  0.13745517  0.88839456     0.37600
N1825       N  0.84075506  0.22103146  0.73823898    -0.43200
N1826       N  0.89189574  0.11371170  0.87980093    -0.43600
N1827       N  0.72735121  0.15036261  0.90290526    -0.41000
N1828       N  0.85830817  0.06268225  0.79675798    -0.42400
H1829       H  0.79391177  0.04607159  0.84459059     0.13800
H1830       H  0.79384800  0.16674020  0.85726506     0.10200
H1831       H  0.81023438  0.16487142  0.78857048     0.11300
H1832       H  0.92353081  0.16784349  0.82800505     0.17100
C1833       C  0.87796010  0.33603520  0.66064573    -0.01100
C1834       C  0.85209221  0.34987871  0.67739479     0.07500
C1835       C  0.84726859  0.33946577  0.70685003    -0.07100
C1836       C  0.86832756  0.31678970  0.72011747     0.04900
C1837       C  0.89523104  0.30409898  0.70385802    -0.14300
C1838       C  0.89919092  0.31342652  0.67393530    -0.07600
C1839       C  0.82929871  0.37451331  0.66441658     0.05900
C1840       C  0.81127850  0.36611108  0.63899041    -0.08700
C1841       C  0.79035326  0.38867426  0.62545337     0.00900
C1842       C  0.78700977  0.42056173  0.63739916     0.00700
C1843       C  0.80383558  0.42855227  0.66364110    -0.12300
C1844       C  0.82488572  0.40590894  0.67716847     0.01200
C1845       C  0.77177459  0.37801808  0.59986748     0.40500
C1846       C  0.84231155  0.41585429  0.70362120     0.37100
C1847       C  0.88377992  0.34517765  0.62999688     0.36900
C1848       C  0.86095510  0.30631760  0.75014995     0.37600
N1849       N  0.75674640  0.36947950  0.57946524    -0.43200
N1850       N  0.85606956  0.42386490  0.72492441    -0.43600
N1851       N  0.85486332  0.29785447  0.77415102    -0.41000
N1852       N  0.88837200  0.35226812  0.60536531    -0.42400
H1853       H  0.91943343  0.30369240  0.66105845     0.13800
H1854       H  0.82675930  0.34898898  0.71951105     0.10200
H1855       H  0.81355226  0.34171093  0.62967939     0.11300
H1856       H  0.80129747  0.45284068  0.67311591     0.17100
C1857       C  0.11438413  0.41027473  0.60261437    -0.01100
C1858       C  0.09685647  0.40611984  0.57589001     0.07500
C1859       C  0.10436543  0.42630665  0.55144408    -0.07100
C1860       C  0.12888987  0.45036474  0.55329232     0.04900
C1861       C  0.14647852  0.45468058  0.58017840    -0.14300
C1862       C  0.13880570  0.43424659  0.60453966    -0.07600
C1863       C  0.07091931  0.38058793  0.57300822     0.05900
C1864       C  0.04344791  0.38161055  0.59185951    -0.08700
C1865       C  0.01904848  0.35742867  0.59043236     0.00900
C1866       C  0.02139135  0.33199977  0.56908895     0.00700
C1867       C  0.04897636  0.33116817  0.55025583    -0.12300
C1868       C  0.07370572  0.35480213  0.55228878     0.01200
C1869       C  0.99212861  0.35947174  0.61121423     0.40500
C1870       C  0.10239369  0.35123640  0.53375235     0.37100
C1871       C  0.10823104  0.38971334  0.62822672     0.36900
C1872       C  0.13525410  0.47008014  0.52721247     0.37600
N1873       N  0.97076786  0.36109142  0.62811117    -0.43200
N1874       N  0.12547285  0.34826305  0.51904084    -0.43600
N1875       N  0.14028828  0.48580901  0.00624070    -0.41000
N1876       N  0.10312138  0.37323881  0.64870229    -0.42400
H1877       H  0.15194800  0.43686494  0.62532290     0.13800
H1878       H  0.09092848  0.42328480  0.53085660     0.10200
H1879       H  0.04122150  0.40128484  0.60795855     0.11300
H1880       H  0.05164360  0.31157424  0.53413340     0.17100
C1881       C  0.04485546  0.13303505  0.01151825    -0.01100
C1882       C  0.06320589  0.12141762  0.53590605     0.07500
C1883       C  0.05800533  0.13519566  0.56410713    -0.07100
C1884       C  0.03543425  0.16056619  0.56825574     0.04900
C1885       C  0.01727148  0.17275607  0.54373817    -0.14300
C1886       C  0.02203101  0.15828860  0.01560993    -0.07600
C1887       C  0.08910032  0.09610451  0.03225613     0.05900
C1888       C  0.11727238  0.10403246  0.01593053    -0.08700
C1889       C  0.14253891  0.08128729  0.01213526     0.00900
C1890       C  0.13973254  0.04949159  0.02451632     0.00700
C1891       C  0.11187669  0.04192255  0.04162439    -0.12300
C1892       C  0.08669561  0.06487557  0.54556212     0.01200
C1893       C  0.17162251  0.09186766  0.99653351     0.40500
C1894       C  0.05821963  0.05554599  0.56263189     0.37100
C1895       C  0.04894005  0.11925671  0.98211201     0.36900
C1896       C  0.03137589  0.17323117  0.59808052     0.37600
N1897       N  0.19497926  0.10055537  0.98423362    -0.43200
N1898       N  0.03537685  0.04805188  0.57629928    -0.43600
N1899       N  0.02808657  0.18342566  0.62196282    -0.41000
N1900       N  0.05224544  0.10820762  0.95854436    -0.42400
H1901       H  0.00830218  0.16708481  0.99658368     0.13800
H1902       H  0.07207168  0.12638270  0.58293520     0.10200
H1903       H  0.11967608  0.12832856  0.00638379     0.11300
H1904       H  0.10939078  0.01775812  0.55139846     0.17100
C1905       C  0.84424175  0.12621561  0.70582294    -0.01100
C1906       C  0.83129709  0.14106771  0.68009341     0.07500
C1907       C  0.79920337  0.13335761  0.67145749    -0.07100
C1908       C  0.78024799  0.11079144  0.68775001     0.04900
C1909       C  0.79341574  0.09558536  0.71341238    -0.14300
C1910       C  0.82534496  0.10398451  0.72219259    -0.07600
C1911       C  0.85184651  0.16262017  0.66081665     0.05900
C1912       C  0.87909888  0.14890932  0.64651013    -0.08700
C1913       C  0.89891347  0.16770729  0.62763143     0.00900
C1914       C  0.89158883  0.20102807  0.62263329     0.00700
C1915       C  0.86505276  0.21517186  0.63776316    -0.12300
C1916       C  0.84495096  0.19616333  0.65647736     0.01200
C1917       C  0.92726290  0.15244101  0.61436968     0.40500
C1918       C  0.81737496  0.21154613  0.67082661     0.37100
C1919       C  0.87697916  0.13333300  0.71590199     0.36900
C1920       C  0.74737190  0.10420098  0.67777695     0.37600
N1921       N  0.95008163  0.14019403  0.60396639    -0.43200
N1922       N  0.79524926  0.22398181  0.68224117    -0.43600
N1923       N  0.72102072  0.09904655  0.66968718    -0.41000
N1924       N  0.90325864  0.13884763  0.72395980    -0.42400
H1925       H  0.83593242  0.09279987  0.74181872     0.13800
H1926       H  0.78916088  0.14455891  0.65158258     0.10200
H1927       H  0.88477133  0.12327015  0.64996812     0.11300
H1928       H  0.85936798  0.24078464  0.63417103     0.17100
C1929       C  0.81082182  0.35374612  0.90768195    -0.01100
C1930       C  0.81789120  0.36172965  0.93764458     0.07500
C1931       C  0.80420310  0.39041176  0.94978380    -0.07100
C1932       C  0.78361185  0.41061887  0.93286355     0.04900
C1933       C  0.77685234  0.40271970  0.90285017    -0.14300
C1934       C  0.79082751  0.37431136  0.89060098    -0.07600
C1935       C  0.83948785  0.34072181  0.95665312     0.05900
C1936       C  0.87123460  0.33286844  0.94685402    -0.08700
C1937       C  0.89226771  0.31370681  0.96437798     0.00900
C1938       C  0.88209962  0.30284737  0.99288426     0.00700
C1939       C  0.85039103  0.31070186  0.00261419    -0.12300
C1940       C  0.82902597  0.32885759  0.98468979     0.01200
C1941       C  0.92450539  0.30662752  0.95294107     0.40500
C1942       C  0.79604843  0.33394189  0.99519414     0.37100
C1943       C  0.82298795  0.32412621  0.89407919     0.36900
C1944       C  0.77093806  0.44001831  0.94648751     0.37600
N1945       N  0.95028713  0.30086958  0.94367731    -0.43200
N1946       N  0.76956313  0.33780454  0.00355444    -0.43600
N1947       N  0.76069994  0.46354092  0.95741566    -0.41000
N1948       N  0.83270223  0.30041115  0.88310585    -0.42400
H1949       H  0.78584013  0.36793579  0.86762703     0.13800
H1950       H  0.80984730  0.39720732  0.97252064     0.10200
H1951       H  0.87977426  0.34202764  0.92556164     0.11300
H1952       H  0.84205442  0.30224660  0.52422523     0.17100
loop_ 
_geom_bond_atom_site_label_1 
_geom_bond_atom_site_label_2 
_geom_bond_distance 
_geom_bond_site_symmetry_2 
_ccdc_geom_bond_type 
O1            C4   1.268       .  A
O1         Cd982   2.510       .  S
C2           O11   1.265       .  A
C2          O983   1.272       .  A
C2          C909   1.494   1_655  S
O3            C9   1.269       .  A
O3           Cd6   2.499       .  S
C4          O988   1.264       .  A
C4          C962   1.492       .  S
C5           O10   1.269       .  A
C5            O8   1.265       .  A
C5          C938   1.482       .  S
Cd6          O13   2.439       .  S
Cd6          O12   2.472       .  S
Cd6          O11   2.432       .  S
Cd6          O10   2.510       .  S
Cd6           O8   2.443       .  S
Cd6         O977   2.510       .  S
Cd6         O983   2.505       .  S
O7          C978   1.272       .  A
O7         Cd982   2.505       .  S
C9           O13   1.264       .  A
C9          C890   1.491   1_655  S
O12         C980   1.264       .  A
O14          C17   1.271       .  A
O14         Cd19   2.490       .  S
C15          O24   1.265       .  A
C15          O20   1.270   1_455  A
C15         C789   1.490       .  S
O16          C22   1.271   1_655  A
O16         Cd19   2.527       .  S
C17          O25   1.265       .  A
C17         C842   1.485       .  S
C18          O23   1.274       .  A
C18          O21   1.266       .  A
C18         C861   1.488       .  S
Cd19         O26   2.424   1_655  S
Cd19         O25   2.440       .  S
Cd19         O24   2.440   1_655  S
Cd19         O20   2.512       .  S
Cd19         O23   2.495       .  S
Cd19         O21   2.418       .  S
C22          O26   1.263       .  A
C22         C813   1.492       .  S
O27          C30   1.271       .  A
O27         Cd32   2.505       .  S
C28          O37   1.266       .  A
C28          O33   1.272       .  A
C28         C717   1.496       .  S
O29          C35   1.270       .  A
O29         Cd32   2.502       .  S
C30          O38   1.263       .  A
C30         C866   1.484       .  S
C31          O36   1.272       .  A
C31          O34   1.265       .  A
C31         C765   1.486       .  S
Cd32         O39   2.445       .  S
Cd32         O38   2.421       .  S
Cd32         O37   2.437       .  S
Cd32         O33   2.492       .  S
Cd32         O36   2.500       .  S
Cd32         O34   2.425       .  S
C35          O39   1.265       .  A
C35         C746   1.486       .  S
O40          C43   1.271       .  A
O40         Cd45   2.498       .  S
C41          O50   1.265       .  A
C41          O46   1.271       .  A
C41         C645   1.484       .  S
O42          C48   1.270       .  A
O42         Cd45   2.491       .  S
C43          O51   1.265       .  A
C43         C957   1.488       .  S
C44          O49   1.270       .  A
C44          O47   1.268       .  A
C44         C693   1.492       .  S
Cd45         O52   2.420       .  S
Cd45         O51   2.448       .  S
Cd45         O50   2.449       .  S
Cd45         O46   2.496       .  S
Cd45         O49   2.480       .  S
Cd45         O47   2.440       .  S
C48          O52   1.263       .  A
C48         C669   1.485       .  S
O53          C56   1.272       .  A
O53         Cd58   2.499       .  S
C54          O63   1.262       .  A
C54          O59   1.271   1_565  A
C54         C602   1.491       .  S
O55          C61   1.270   1_545  A
O55         Cd58   2.504       .  S
C56          O64   1.267       .  A
C56         C933   1.492       .  S
C57          O62   1.266       .  A
C57          O60   1.262       .  A
C57         C626   1.484       .  S
Cd58         O65   2.446   1_545  S
Cd58         O64   2.426       .  S
Cd58         O63   2.426   1_545  S
Cd58         O59   2.508       .  S
Cd58         O62   2.489       .  S
Cd58         O60   2.455       .  S
C61          O65   1.266       .  A
C61         C573   1.496       .  S
O66          C69   1.267       .  A
O66         Cd71   2.481       .  S
C67          O76   1.266       .  A
C67          O72   1.270       .  A
C67         C525   1.496       .  S
O68        C1050   1.272       .  A
O68       Cd1047   2.496   1_565  S
C69          O77   1.262       .  A
C69         C837   1.482       .  S
C70          O75   1.273       .  A
C70        O1049   1.267       .  A
C70         C554   1.490       .  S
Cd71         O78   2.438   1_545  S
Cd71         O77   2.452       .  S
Cd71         O76   2.456   1_545  S
Cd71         O72   2.499   1_545  S
Cd71         O73   2.423       .  S
Cd71       O1044   2.496   1_545  S
Cd71       O1051   2.494       .  S
O73        C1046   1.267       .  A
C74          O78   1.263       .  A
C74        O1044   1.272       .  A
C74         C501   1.492       .  S
O75       Cd1047   2.494       .  S
O79          C82   1.269       .  A
O79         Cd84   2.489       .  S
C80          O89   1.265       .  A
C80          O85   1.271       .  A
C80         C477   1.486       .  S
O81          C87   1.271       .  A
O81         Cd84   2.506       .  S
C82          O90   1.266       .  A
C82         C698   1.489       .  S
C83          O88   1.271       .  A
C83          O86   1.263       .  A
C83         C549   1.481       .  S
Cd84         O91   2.435       .  S
Cd84         O90   2.435       .  S
Cd84         O89   2.423       .  S
Cd84         O85   2.462       .  S
Cd84         O88   2.515       .  S
Cd84         O86   2.415       .  S
C87          O91   1.264       .  A
C87         C453   1.488       .  S
O92          C95   1.272       .  A
O92         Cd97   2.488       .  S
C93         O102   1.266       .  A
C93          O98   1.271       .  A
C93         C410   1.493       .  S
O94         C100   1.271       .  A
O94         Cd97   2.497       .  S
C95         O103   1.265       .  A
C95         C621   1.482       .  S
C96         O101   1.273       .  A
C96          O99   1.265       .  A
C96         C770   1.490       .  S
Cd97        O104   2.439       .  S
Cd97        O103   2.426       .  S
Cd97        O102   2.436       .  S
Cd97         O98   2.492       .  S
Cd97        O101   2.495       .  S
Cd97         O99   2.417       .  S
C100        O104   1.265       .  A
C100        C429   1.485       .  S
O105        C108   1.270       .  A
O105       Cd110   2.510       .  S
C106        O115   1.263       .  A
C106        O111   1.271       .  A
C106        C458   1.484       .  S
O107        C113   1.270       .  A
O107       Cd110   2.501       .  S
C108        O116   1.265       .  A
C108        C362   1.489       .  S
C109        O114   1.271       .  A
C109        O112   1.266       .  A
C109        C381   1.490       .  S
Cd110       O117   2.439       .  S
Cd110       O116   2.447       .  S
Cd110       O115   2.429       .  S
Cd110       O111   2.507       .  S
Cd110       O114   2.497       .  S
Cd110       O112   2.432       .  S
C113        O117   1.265       .  A
C113        C885   1.495       .  S
O118        C121   1.270       .  A
O118       Cd123   2.490       .  S
C119        O128   1.264       .  A
C119        O124   1.271       .  A
C119        C794   1.486       .  S
O120        C126   1.270       .  A
O120       Cd123   2.506       .  S
C121        O129   1.266       .  A
C121        C333   1.495       .  S
C122        O127   1.271       .  A
C122        O125   1.265       .  A
C122        C309   1.490       .  S
Cd123       O130   2.438       .  S
Cd123       O129   2.452       .  S
Cd123       O128   2.426       .  S
Cd123       O124   2.508       .  S
Cd123       O127   2.494       .  S
Cd123       O125   2.433       .  S
C126        O130   1.265       .  A
C126        C405   1.492       .  S
O131        C134   1.270       .  A
O131       Cd136   2.493       .  S
C132        O141   1.266       .  A
C132        O137   1.270       .  A
C132        C597   1.488       .  S
O133        C139   1.271       .  A
O133       Cd136   2.508       .  S
C134        O142   1.263       .  A
C134        C338   1.481       .  S
C135        O140   1.270       .  A
C135        O138   1.264       .  A
C135        C285   1.494       .  S
Cd136       O143   2.444       .  S
Cd136       O142   2.421       .  S
Cd136       O141   2.424       .  S
Cd136       O137   2.501       .  S
Cd136       O140   2.504       .  S
Cd136       O138   2.453       .  S
C139        O143   1.265       .  A
C139        C722   1.490       .  S
O144        C147   1.267       .  A
O144       Cd149   2.484       .  S
C145        O154   1.266       .  A
C145        O150   1.270       .  A
C145        C650   1.488       .  S
O146        C152   1.269       .  A
O146       Cd149   2.521       .  S
C147        O155   1.264       .  A
C147        C261   1.485       .  S
C148        O153   1.271       .  A
C148        O151   1.266       .  A
C148        C386   1.487       .  S
Cd149       O156   2.452       .  S
Cd149       O155   2.477       .  S
Cd149       O154   2.453       .  S
Cd149       O150   2.491       .  S
Cd149       O153   2.494       .  S
Cd149       O151   2.444       .  S
C152        O156   1.263       .  A
C152        C530   1.497       .  S
O157        C160   1.268       .  A
O157       Cd162   2.475       .  S
C158        O167   1.263       .  A
C158        O163   1.269       .  A
C158        C482   1.482       .  S
O159        C165   1.270       .  A
O159       Cd162   2.515   1_545  S
C160        O168   1.265       .  A
C160        C242   1.470       .  S
C161        O166   1.270       .  A
C161        O164   1.267       .  A
C161        C266   1.493       .  S
Cd162       O169   2.442   1_565  S
Cd162       O168   2.427       .  S
Cd162       O167   2.420   1_565  S
Cd162       O163   2.502   1_565  S
Cd162       O166   2.489       .  S
Cd162       O164   2.474       .  S
C165        O169   1.263       .  A
C165        C818   1.489       .  S
O170        C173   1.270       .  A
O170       Cd175   2.511       .  S
C171        O180   1.263       .  A
C171        O176   1.270       .  A
C171        C434   1.493       .  S
O172       C1154   1.268       .  A
O172      Cd1151   2.514   1_545  S
C173        O181   1.266       .  A
C173        C213   1.496       .  S
C174        O179   1.269       .  A
C174       O1153   1.265       .  A
C174        C290   1.480       .  S
Cd175       O182   2.457   1_565  S
Cd175       O181   2.460       .  S
Cd175       O180   2.440   1_565  S
Cd175       O176   2.518   1_565  S
Cd175       O177   2.445       .  S
Cd175      O1148   2.514   1_565  S
Cd175      O1155   2.492       .  S
O177       C1150   1.265       .  A
C178        O182   1.263       .  A
C178       O1148   1.268       .  A
C178        C914   1.490       .  S
O179      Cd1151   2.492       .  S
O183        C186   1.273       .  A
O183       Cd188   2.487   1_455  S
C184        O193   1.265   1_554  A
C184        O189   1.271       .  A
C184        C741   1.496       .  S
O185       C1167   1.269       .  A
O185      Cd1164   2.468       .  S
C186        O194   1.265       .  A
C186        C237   1.492       .  S
C187        O192   1.269       .  A
C187       O1166   1.266       .  A
C187        C314   1.482       .  S
Cd188       O195   2.444       .  S
Cd188       O194   2.436   1_655  S
Cd188       O193   2.437   1_554  S
Cd188       O189   2.508       .  S
Cd188       O190   2.435   1_654  S
Cd188      O1161   2.468   1_554  S
Cd188      O1168   2.480   1_654  S
O190       C1163   1.266       .  A
C191        O195   1.265   1_556  A
C191       O1161   1.269       .  A
C191        C506   1.488       .  S
O192      Cd1164   2.480   1_455  S
O196        C199   1.268       .  A
O196       Cd201   2.498       .  S
C197        O206   1.264       .  A
C197        O202   1.269       .  A
C197        C674   1.496       .  S
O198        C204   1.269       .  A
O198       Cd201   2.510   1_655  S
C199        O207   1.263       .  A
C199        C218   1.487       .  S
C200        O205   1.271       .  A
C200        O203   1.267       .  A
C200        C357   1.493       .  S
Cd201       O208   2.450   1_455  S
Cd201       O207   2.458       .  S
Cd201       O206   2.469   1_455  S
Cd201       O202   2.492   1_455  S
Cd201       O205   2.484       .  S
Cd201       O203   2.438       .  S
C204        O208   1.264       .  A
C204        C578   1.495       .  S
C209        C210   1.408       .  A
C209        C214   1.403       .  A
C209        C223   1.444       .  S
C210        C215   1.493       .  S
C210        C211   1.405       .  A
C211        C212   1.407       .  A
C211        H230   1.085       .  S
C212        C213   1.417       .  A
C212        C224   1.444       .  S
C213        C214   1.409       .  A
C214        H229   1.085       .  S
C215        C216   1.404       .  A
C215        C220   1.410       .  A
C216        C217   1.402       .  A
C216        H231   1.079       .  S
C217        C218   1.413       .  A
C217        C221   1.443       .  S
C218        C219   1.407       .  A
C219        C220   1.405       .  A
C219        H232   1.083       .  S
C220        C222   1.443       .  S
C221        N225   1.157   1_455  T
C222        N226   1.157       .  T
C223        N228   1.157       .  T
C224        N227   1.157       .  T
C233        C234   1.414       .  A
C233        C238   1.402       .  A
C233        C247   1.444       .  S
C234        C239   1.493       .  S
C234        C235   1.402       .  A
C235        C236   1.401       .  A
C235        H254   1.086       .  S
C236        C237   1.420       .  A
C236        C248   1.444       .  S
C237        C238   1.405       .  A
C238        H253   1.085       .  S
C239        C240   1.406       .  A
C239        C244   1.416       .  A
C240        C241   1.399       .  A
C240        H255   1.084       .  S
C241        C242   1.407       .  A
C241        C245   1.444       .  S
C242        C243   1.402       .  A
C243        C244   1.403       .  A
C243        H256   1.084       .  S
C244        C246   1.445       .  S
C245        N249   1.157       .  T
C246        N250   1.157       .  T
C247        N252   1.157       .  T
C248        N251   1.157   1_554  T
C257        C258   1.411       .  A
C257        C262   1.406       .  A
C257        C271   1.444       .  S
C258        C263   1.493       .  S
C258        C259   1.404       .  A
C259        C260   1.403       .  A
C259        H278   1.071       .  S
C260        C261   1.412       .  A
C260        C272   1.444       .  S
C261        C262   1.407       .  A
C262        H277   1.081       .  S
C263        C264   1.404       .  A
C263        C268   1.410       .  A
C264        C265   1.404       .  A
C264        H279   1.084       .  S
C265        C266   1.416       .  A
C265        C269   1.444       .  S
C266        C267   1.409       .  A
C267        C268   1.405       .  A
C267        H280   1.085       .  S
C268        C270   1.444       .  S
C269        N273   1.157       .  T
C270        N274   1.157       .  T
C271        N276   1.157       .  T
C272        N275   1.157       .  T
C281        C282   1.417       .  A
C281        C286   1.405       .  A
C281        C295   1.444       .  S
C282        C287   1.500       .  S
C282        C283   1.403       .  A
C283        C284   1.401       .  A
C283        H302   1.085       .  S
C284        C285   1.417       .  A
C284        C296   1.442       .  S
C285        C286   1.405       .  A
C286        H301   1.085       .  S
C287        C288   1.407       .  A
C287        C292   1.418       .  A
C288        C289   1.402       .  A
C288        H303   1.085       .  S
C289        C290   1.411       .  A
C289       C1269   1.444       .  S
C290        C291   1.402       .  A
C291        C292   1.403       .  A
C291        H304   1.085       .  S
C292        C294   1.444       .  S
C293       C1265   1.444       .  S
C293        N297   1.157       .  T
C294        N298   1.157       .  T
C295       N1276   1.157       .  T
C296        N299   1.157       .  T
N300       C1271   1.157       .  T
C305        C306   1.408       .  A
C305        C310   1.401       .  A
C305        C319   1.445       .  S
C306        C311   1.488       .  S
C306        C307   1.405       .  A
C307        C308   1.403       .  A
C307        H326   1.083       .  S
C308        C309   1.415       .  A
C308        C320   1.444       .  S
C309        C310   1.410       .  A
C310        H325   1.083       .  S
C311        C312   1.405       .  A
C311        C316   1.410       .  A
C312        C313   1.404       .  A
C312        H327   1.084       .  S
C313        C314   1.414       .  A
C313        C317   1.444       .  S
C314        C315   1.405       .  A
C315        C316   1.399       .  A
C315        H328   1.085       .  S
C316        C318   1.444       .  S
C317        N321   1.157   1_455  T
C318        N322   1.157       .  T
C319        N324   1.157       .  T
C320        N323   1.157       .  T
C329        C330   1.409       .  A
C329        C334   1.401       .  A
C329        C343   1.445       .  S
C330        C335   1.490       .  S
C330        C331   1.404       .  A
C331        C332   1.405       .  A
C331        H350   1.085       .  S
C332        C333   1.418       .  A
C332        C344   1.444       .  S
C333        C334   1.410       .  A
C334        H349   1.084       .  S
C335        C336   1.402       .  A
C335        C340   1.414       .  A
C336        C337   1.400       .  A
C336        H351   1.085       .  S
C337        C338   1.415       .  A
C337        C341   1.445       .  S
C338        C339   1.404       .  A
C339        C340   1.403       .  A
C339        H352   1.085       .  S
C340        C342   1.443       .  S
C341        N345   1.158       .  T
C342        N346   1.157       .  T
C343        N348   1.157       .  T
C344        N347   1.158       .  T
C353        C354   1.410       .  A
C353        C358   1.401       .  A
C353        C367   1.444       .  S
C354        C359   1.490       .  S
C354        C355   1.404       .  A
C355        C356   1.405       .  A
C355        H374   1.085       .  S
C356        C357   1.417       .  A
C356        C368   1.444       .  S
C357        C358   1.409       .  A
C358        H373   1.084       .  S
C359        C360   1.401       .  A
C359        C364   1.412       .  A
C360        C361   1.401       .  A
C360        H375   1.085       .  S
C361        C362   1.416       .  A
C361        C365   1.445       .  S
C362        C363   1.407       .  A
C363        C364   1.407       .  A
C363        H376   1.084       .  S
C364        C366   1.444       .  S
C365        N369   1.157       .  T
C366        N370   1.157       .  T
C367        N372   1.157       .  T
C368        N371   1.157       .  T
C377        C378   1.407   1_554  A
C377        C382   1.400       .  A
C377        C391   1.444       .  S
C378       C1359   1.485       .  S
C378        C379   1.403       .  A
C379        C380   1.406   1_556  A
C379       H1374   1.084       .  S
C380        C381   1.416       .  A
C380        C392   1.443   1_554  S
C381        C382   1.409       .  A
C382        H397   1.084       .  S
C383       C1354   1.485       .  S
C383        C384   1.400       .  A
C383        C388   1.410       .  A
C384        C385   1.402       .  A
C384        H399   1.084       .  S
C385        C386   1.417       .  A
C385        C389   1.445       .  S
C386        C387   1.406       .  A
C387        C388   1.404       .  A
C387        H400   1.084       .  S
C388       C1366   1.443       .  S
C389        N393   1.157       .  T
C390       C1364   1.443   1_554  S
C390        N394   1.157       .  T
C391        N396   1.157       .  T
C392       N1371   1.157       .  T
N395       C1368   1.157       .  T
H398       C1355   1.084       .  S
C401        C402   1.411       .  A
C401        C406   1.400       .  A
C401        C415   1.445       .  S
C402        C407   1.495       .  S
C402        C403   1.407       .  A
C403        C404   1.405       .  A
C403        H422   1.083       .  S
C404        C405   1.415       .  A
C404        C416   1.443       .  S
C405        C406   1.408       .  A
C406        H421   1.083       .  S
C407        C408   1.406       .  A
C407        C412   1.411       .  A
C408        C409   1.403       .  A
C408        H423   1.083       .  S
C409        C410   1.416       .  A
C409        C413   1.443       .  S
C410        C411   1.409       .  A
C411        C412   1.402       .  A
C411        H424   1.083       .  S
C412        C414   1.444       .  S
C413        N417   1.157       .  T
C414        N418   1.157       .  T
C415        N420   1.157       .  T
C416        N419   1.157       .  T
C425        C426   1.414       .  A
C425        C430   1.403       .  A
C425        C439   1.444       .  S
C426        C431   1.492       .  S
C426        C427   1.403       .  A
C427        C428   1.404       .  A
C427        H446   1.084       .  S
C428        C429   1.416       .  A
C428        C440   1.445       .  S
C429        C430   1.403       .  A
C430        H445   1.084       .  S
C431        C432   1.405       .  A
C431        C436   1.409       .  A
C432        C433   1.407       .  A
C432        H447   1.084       .  S
C433        C434   1.416       .  A
C433        C437   1.443       .  S
C434        C435   1.409       .  A
C435        C436   1.401       .  A
C435        H448   1.084       .  S
C436        C438   1.444       .  S
C437        N441   1.157       .  T
C438       N1418   1.157       .  T
C439        N444   1.157       .  T
C440        N443   1.157       .  T
N442       C1414   1.157       .  T
C449        C450   1.410       .  A
C449        C454   1.401       .  A
C449        C463   1.444       .  S
C450        C455   1.490       .  S
C450        C451   1.405       .  A
C451        C452   1.405       .  A
C451        H470   1.084       .  S
C452        C453   1.414       .  A
C452        C464   1.444       .  S
C453        C454   1.407       .  A
C454        H469   1.084       .  S
C455        C456   1.402       .  A
C455        C460   1.413       .  A
C456        C457   1.400       .  A
C456        H471   1.085       .  S
C457        C458   1.415       .  A
C457        C461   1.445       .  S
C458        C459   1.405       .  A
C459        C460   1.405       .  A
C459        H472   1.084       .  S
C460        C462   1.444       .  S
C461        N465   1.157       .  T
C462        N466   1.157       .  T
C463        N468   1.157       .  T
C464        N467   1.157       .  T
C473        C474   1.411       .  A
C473        C478   1.399       .  A
C473        C487   1.444       .  S
C474        C479   1.485       .  S
C474        C475   1.401       .  A
C475        C476   1.400       .  A
C475        H494   1.085       .  S
C476        C477   1.420       .  A
C476        C488   1.445       .  S
C477        C478   1.405       .  A
C478        H493   1.085       .  S
C479        C480   1.400       .  A
C479        C484   1.411       .  A
C480        C481   1.396       .  A
C480        H495   1.085       .  S
C481        C482   1.416       .  A
C481        C485   1.445       .  S
C482        C483   1.406       .  A
C483        C484   1.404       .  A
C483        H496   1.084       .  S
C484        C486   1.444       .  S
C485        N489   1.157       .  T
C486        N490   1.157       .  T
C487        N492   1.157       .  T
C488        N491   1.158       .  T
C497        C498   1.414       .  A
C497        C502   1.402       .  A
C497       C1487   1.444       .  S
C498       C1479   1.493       .  S
C498        C499   1.402       .  A
C499        C500   1.400       .  A
C499        H518   1.085       .  S
C500        C501   1.420       .  A
C500        C512   1.445       .  S
C501        C502   1.406       .  A
C502        H517   1.085       .  S
C503       C1474   1.493       .  S
C503        C504   1.403       .  A
C503       C1484   1.414       .  A
C504        C505   1.401   1_556  A
C504        H519   1.085   1_556  S
C505        C506   1.417   1_554  A
C505        C509   1.444       .  S
C506       C1483   1.406       .  A
C507        C508   1.402       .  A
C507       C1482   1.406       .  A
C507        H520   1.084       .  S
C508       C1479   1.414       .  A
C508        C510   1.445       .  S
C509        N513   1.157       .  T
C510        N514   1.157       .  T
C511       C1473   1.444   1_554  S
C511        N516   1.157       .  T
C512        N515   1.158       .  T
C521        C522   1.411       .  A
C521        C526   1.402       .  A
C521        C535   1.444       .  S
C522        C527   1.498       .  S
C522        C523   1.407       .  A
C523        C524   1.407       .  A
C523        H542   1.085       .  S
C524        C525   1.417       .  A
C524        C536   1.444       .  S
C525        C526   1.409       .  A
C526        H541   1.085       .  S
C527        C528   1.407       .  A
C527        C532   1.411       .  A
C528        C529   1.407       .  A
C528        H543   1.083       .  S
C529        C530   1.416       .  A
C529        C533   1.443       .  S
C530        C531   1.410       .  A
C531        C532   1.402       .  A
C531        H544   1.083       .  S
C532        C534   1.445       .  S
C533       N1513   1.157       .  T
C534        N538   1.157       .  T
C535        N540   1.157       .  T
C536        N539   1.157       .  T
N537       C1509   1.157       .  T
C545        C546   1.413       .  A
C545        C550   1.407       .  A
C545        C559   1.443       .  S
C546        C551   1.491       .  S
C546        C547   1.402       .  A
C547        C548   1.397       .  A
C547        H566   1.085       .  S
C548        C549   1.413       .  A
C548        C560   1.445       .  S
C549        C550   1.404       .  A
C550        H565   1.084       .  S
C551        C552   1.406       .  A
C551        C556   1.410   1_554  A
C552        C553   1.407       .  A
C552        H567   1.085       .  S
C553        C554   1.416   1_554  A
C553        C557   1.444       .  S
C554        C555   1.406       .  A
C555        C556   1.398       .  A
C555       H1544   1.084       .  S
C556        C558   1.444       .  S
C557        N561   1.157       .  T
C558        N562   1.157       .  T
C559        N564   1.157       .  T
C560        N563   1.157       .  T
H568       C1531   1.084       .  S
C569        C570   1.410       .  A
C569        C574   1.401       .  A
C569        C583   1.445       .  S
C570        C575   1.496       .  S
C570        C571   1.406       .  A
C571        C572   1.406       .  A
C571        H590   1.084       .  S
C572        C573   1.418       .  A
C572        C584   1.443       .  S
C573        C574   1.409       .  A
C574        H589   1.083       .  S
C575        C576   1.406       .  A
C575        C580   1.411       .  A
C576        C577   1.406       .  A
C576        H591   1.084       .  S
C577        C578   1.417       .  A
C577        C581   1.443       .  S
C578        C579   1.409       .  A
C579        C580   1.401       .  A
C579        H592   1.084       .  S
C580        C582   1.445       .  S
C581        N585   1.157       .  T
C582        N586   1.157       .  T
C583        N588   1.157       .  T
C584        N587   1.157       .  T
C593        C594   1.411       .  A
C593        C598   1.407       .  A
C593        C607   1.444       .  S
C594        C599   1.486       .  S
C594        C595   1.399       .  A
C595        C596   1.397       .  A
C595        H614   1.085       .  S
C596        C597   1.416       .  A
C596        C608   1.444       .  S
C597        C598   1.409       .  A
C598        H613   1.084       .  S
C599        C600   1.399       .  A
C599        C604   1.411       .  A
C600        C601   1.401       .  A
C600        H615   1.084       .  S
C601        C602   1.421       .  A
C601        C605   1.445       .  S
C602        C603   1.406       .  A
C603        C604   1.403       .  A
C603        H616   1.084       .  S
C604        C606   1.444       .  S
C605        N609   1.157       .  T
C606        N610   1.157       .  T
C607        N612   1.157       .  T
C608        N611   1.157       .  T
C617        C618   1.412       .  A
C617        C622   1.402       .  A
C617        C631   1.444       .  S
C618        C623   1.486       .  S
C618        C619   1.402       .  A
C619        C620   1.403       .  A
C619        H638   1.085       .  S
C620        C621   1.415       .  A
C620        C632   1.444       .  S
C621        C622   1.403       .  A
C622        H637   1.084       .  S
C623        C624   1.401       .  A
C623        C628   1.411       .  A
C624        C625   1.401       .  A
C624        H639   1.085       .  S
C625        C626   1.414       .  A
C625        C629   1.444       .  S
C626        C627   1.406       .  A
C627        C628   1.404       .  A
C627        H640   1.084       .  S
C628        C630   1.444       .  S
C629        N633   1.157       .  T
C630        N634   1.157       .  T
C631        N636   1.157       .  T
C632        N635   1.157       .  T
C641        C642   1.414       .  A
C641        C646   1.404       .  A
C641        C655   1.444       .  S
C642        C647   1.494       .  S
C642        C643   1.404       .  A
C643        C644   1.403       .  A
C643        H662   1.084       .  S
C644        C645   1.414       .  A
C644        C656   1.444       .  S
C645        C646   1.403       .  A
C646        H661   1.084       .  S
C647        C648   1.406       .  A
C647        C652   1.412       .  A
C648        C649   1.406       .  A
C648        H663   1.084       .  S
C649        C650   1.414       .  A
C649        C653   1.444       .  S
C650        C651   1.406       .  A
C651        C652   1.402       .  A
C651        H664   1.084       .  S
C652        C654   1.444       .  S
C653        N657   1.157       .  T
C654        N658   1.157       .  T
C655        N660   1.157       .  T
C656        N659   1.157       .  T
C665        C666   1.412       .  A
C665        C670   1.403       .  A
C665        C679   1.443       .  S
C666        C671   1.490       .  S
C666        C667   1.402       .  A
C667        C668   1.400       .  A
C667        H686   1.084       .  S
C668        C669   1.417       .  A
C668        C680   1.445       .  S
C669        C670   1.405       .  A
C670        H685   1.084       .  S
C671        C672   1.401       .  A
C671        C676   1.410       .  A
C672        C673   1.403       .  A
C672        H687   1.085       .  S
C673        C674   1.421       .  A
C673        C677   1.444       .  S
C674        C675   1.408       .  A
C675        C676   1.403       .  A
C675        H688   1.085       .  S
C676        C678   1.444       .  S
C677        N681   1.157       .  T
C678        N682   1.157       .  T
C679        N684   1.157       .  T
C680        N683   1.158       .  T
C689        C690   1.410       .  A
C689        C694   1.400       .  A
C689        C703   1.444       .  S
C690        C695   1.490       .  S
C690        C691   1.405       .  A
C691        C692   1.403       .  A
C691        H710   1.084       .  S
C692        C693   1.417       .  A
C692        C704   1.444       .  S
C693        C694   1.408       .  A
C694        H709   1.084       .  S
C695        C696   1.401       .  A
C695        C700   1.413       .  A
C696        C697   1.399       .  A
C696        H711   1.085       .  S
C697        C698   1.417       .  A
C697        C701   1.443       .  S
C698        C699   1.407       .  A
C699        C700   1.405       .  A
C699        H712   1.084       .  S
C700        C702   1.444       .  S
C701        N705   1.157       .  T
C702        N706   1.157       .  T
C703        N708   1.157       .  T
C704        N707   1.158       .  T
C713        C714   1.414       .  A
C713        C718   1.405       .  A
C713        C727   1.444       .  S
C714        C719   1.496       .  S
C714        C715   1.402       .  A
C715        C716   1.401       .  A
C715        H734   1.085       .  S
C716        C717   1.420       .  A
C716        C728   1.444       .  S
C717        C718   1.408       .  A
C718        H733   1.085       .  S
C719        C720   1.403       .  A
C719        C724   1.415       .  A
C720        C721   1.402       .  A
C720        H735   1.084       .  S
C721        C722   1.416       .  A
C721        C725   1.444       .  S
C722        C723   1.406       .  A
C723        C724   1.406       .  A
C723        H736   1.084       .  S
C724        C726   1.444       .  S
C725        N729   1.157       .  T
C726        N730   1.157       .  T
C727        N732   1.157       .  T
C728        N731   1.157       .  T
C737        C738   1.411       .  A
C737        C742   1.402       .  A
C737        C751   1.444   1_554  S
C738        C743   1.497       .  S
C738        C739   1.407       .  A
C739        C740   1.406       .  A
C739        H758   1.084       .  S
C740        C741   1.416       .  A
C740        C752   1.443       .  S
C741        C742   1.410       .  A
C742        H757   1.084   1_554  S
C743        C744   1.407       .  A
C743        C748   1.413       .  A
C744        C745   1.406       .  A
C744        H759   1.083       .  S
C745        C746   1.413       .  A
C745        C749   1.444       .  S
C746        C747   1.405       .  A
C747        C748   1.401       .  A
C747        H760   1.083       .  S
C748        C750   1.445       .  S
C749       N1729   1.157       .  T
C750        N754   1.157       .  T
C751        N756   1.157       .  T
C752        N755   1.157       .  T
N753       C1725   1.157       .  T
C761        C762   1.407       .  A
C761        C766   1.399       .  A
C761        C775   1.443       .  S
C762       C1743   1.486       .  S
C762        C763   1.405       .  A
C763        C764   1.405       .  A
C763       H1758   1.084   1_554  S
C764        C765   1.414       .  A
C764        C776   1.443       .  S
C765        C766   1.407       .  A
C766        H781   1.085       .  S
C767       C1738   1.486       .  S
C767        C768   1.399       .  A
C767       C1748   1.411       .  A
C768        C769   1.399       .  A
C768        H783   1.086       .  S
C769        C770   1.419       .  A
C769        C773   1.444       .  S
C770        C771   1.406       .  A
C771       C1748   1.404       .  A
C771        H784   1.084       .  S
C772       C1743   1.411       .  A
C772       C1747   1.404       .  A
C772        C774   1.444       .  S
C773        N777   1.157       .  T
C774        N778   1.157       .  T
C775        N780   1.157       .  T
C776        N779   1.157   1_554  T
H782       C1739   1.084       .  S
C785        C786   1.407       .  A
C785        C790   1.400       .  A
C785        C799   1.444       .  S
C786        C791   1.487       .  S
C786        C787   1.404       .  A
C787        C788   1.406       .  A
C787        H806   1.084       .  S
C788        C789   1.416       .  A
C788        C800   1.443       .  S
C789        C790   1.408       .  A
C790        H805   1.084       .  S
C791        C792   1.400       .  A
C791        C796   1.412       .  A
C792        C793   1.401       .  A
C792        H807   1.085       .  S
C793        C794   1.416       .  A
C793        C797   1.445       .  S
C794        C795   1.406       .  A
C795        C796   1.405       .  A
C795        H808   1.084       .  S
C796        C798   1.444       .  S
C797        N801   1.157       .  T
C798        N802   1.157       .  T
C799        N804   1.157       .  T
C800        N803   1.157       .  T
C809        C810   1.415       .  A
C809        C814   1.407       .  A
C809        C823   1.444       .  S
C810        C815   1.495       .  S
C810        C811   1.402       .  A
C811        C812   1.401       .  A
C811        H830   1.085       .  S
C812        C813   1.418       .  A
C812        C824   1.445       .  S
C813        C814   1.406       .  A
C814        H829   1.084       .  S
C815        C816   1.407       .  A
C815        C820   1.411       .  A
C816        C817   1.405       .  A
C816        H831   1.084       .  S
C817        C818   1.413       .  A
C817        C821   1.443       .  S
C818        C819   1.408       .  A
C819        C820   1.402       .  A
C819        H832   1.084       .  S
C820        C822   1.444       .  S
C821        N825   1.157       .  T
C822        N826   1.157       .  T
C823        N828   1.157       .  T
C824        N827   1.157       .  T
C833        C834   1.410       .  A
C833        C838   1.402       .  A
C833        C847   1.443       .  S
C834        C839   1.486       .  S
C834        C835   1.403       .  A
C835        C836   1.403       .  A
C835        H854   1.084       .  S
C836        C837   1.414       .  A
C836        C848   1.445       .  S
C837        C838   1.403       .  A
C838        H853   1.082       .  S
C839        C840   1.401       .  A
C839        C844   1.411       .  A
C840        C841   1.402       .  A
C840        H855   1.085       .  S
C841        C842   1.416       .  A
C841        C845   1.443       .  S
C842        C843   1.404       .  A
C843        C844   1.403       .  A
C843        H856   1.085       .  S
C844        C846   1.443       .  S
C845        N849   1.157       .  T
C846        N850   1.157       .  T
C847        N852   1.157       .  T
C848        N851   1.157       .  T
C857        C858   1.415       .  A
C857        C862   1.404       .  A
C857        C871   1.444       .  S
C858        C863   1.493       .  S
C858        C859   1.402       .  A
C859        C860   1.401       .  A
C859        H878   1.085       .  S
C860        C861   1.418       .  A
C860        C872   1.445       .  S
C861        C862   1.405       .  A
C862        H877   1.085       .  S
C863        C864   1.402       .  A
C863        C868   1.416       .  A
C864        C865   1.399       .  A
C864        H879   1.085       .  S
C865        C866   1.415       .  A
C865        C869   1.445       .  S
C866        C867   1.404       .  A
C867        C868   1.405       .  A
C867        H880   1.084       .  S
C868        C870   1.444       .  S
C869        N873   1.157       .  T
C870        N874   1.157       .  T
C871        N876   1.157       .  T
C872        N875   1.157       .  T
C881        C882   1.409       .  A
C881        C886   1.400       .  A
C881        C895   1.445       .  S
C882        C887   1.492       .  S
C882        C883   1.405       .  A
C883        C884   1.406       .  A
C883        H902   1.083       .  S
C884        C885   1.417       .  A
C884        C896   1.444       .  S
C885        C886   1.410       .  A
C886        H901   1.083       .  S
C887        C888   1.406       .  A
C887        C892   1.409       .  A
C888        C889   1.405       .  A
C888        H903   1.084       .  S
C889        C890   1.416       .  A
C889        C893   1.444   1_455  S
C890        C891   1.409       .  A
C891        C892   1.400       .  A
C891        H904   1.084       .  S
C892        C894   1.444       .  S
C893        N897   1.157       .  T
C894        N898   1.157       .  T
C895        N900   1.157       .  T
C896       N1875   1.157       .  T
N899       C1872   1.157       .  T
C905        C910   1.405       .  A
C905       C1882   1.412       .  A
C905        C919   1.444       .  S
C906       C1887   1.491       .  S
C906        C907   1.401       .  A
C906       C1881   1.412       .  A
C907        C908   1.402       .  A
C907        H926   1.086       .  S
C908        C909   1.420       .  A
C908        C920   1.444       .  S
C909       C1886   1.407       .  A
C910       C1885   1.407       .  A
C910        H925   1.085       .  S
C911       C1882   1.491       .  S
C911        C912   1.401       .  A
C911       C1892   1.412       .  A
C912        C913   1.402       .  A
C912        H927   1.085       .  S
C913        C914   1.417       .  A
C913        C917   1.444       .  S
C914        C915   1.406       .  A
C915       C1892   1.405       .  A
C915       H1904   1.085       .  S
C916       C1887   1.412       .  A
C916       C1891   1.405       .  A
C916        C918   1.443       .  S
C917        N921   1.157       .  T
C918        N922   1.157       .  T
C919        N924   1.157       .  T
C920        N923   1.157       .  T
H928       C1891   1.085       .  S
C929        C930   1.409       .  A
C929        C934   1.399       .  A
C929        C943   1.444       .  S
C930        C935   1.491       .  S
C930        C931   1.405       .  A
C931        C932   1.407       .  A
C931        H950   1.085       .  S
C932        C933   1.417       .  A
C932        C944   1.444       .  S
C933        C934   1.407       .  A
C934        H949   1.084       .  S
C935        C936   1.403       .  A
C935        C940   1.413       .  A
C936        C937   1.399       .  A
C936        H951   1.085       .  S
C937        C938   1.413       .  A
C937        C941   1.445       .  S
C938        C939   1.404       .  A
C939        C940   1.407       .  A
C939        H952   1.085       .  S
C940        C942   1.443       .  S
C941        N945   1.157       .  T
C942        N946   1.157       .  T
C943        N948   1.157       .  T
C944        N947   1.157       .  T
C953        C954   1.414       .  A
C953        C958   1.403       .  A
C953        C967   1.444       .  S
C954        C959   1.501       .  S
C954        C955   1.409       .  A
C955        C956   1.405       .  A
C955        H974   1.083       .  S
C956        C957   1.413       .  A
C956        C968   1.444       .  S
C957        C958   1.406       .  A
C958        H973   1.083       .  S
C959        C960   1.408       .  A
C959        C964   1.413       .  A
C960        C961   1.407       .  A
C960        H975   1.083       .  S
C961        C962   1.415       .  A
C961        C965   1.444       .  S
C962        C963   1.406       .  A
C963        C964   1.403       .  A
C963       H1952   1.084       .  S
C964        C966   1.444       .  S
C965        N969   1.157       .  T
C966        N970   1.157       .  T
C967        N972   1.157       .  T
C968        N971   1.157       .  T
H976       C1939   1.084       .  S
O977        C980   1.268       .  A
C978        O987   1.265       .  A
C978       C1885   1.494   1_655  S
O979        C985   1.269       .  A
O979       Cd982   2.499       .  S
C980       C1938   1.492   1_554  S
C981        O986   1.269       .  A
C981        O984   1.265       .  A
C981       C1914   1.482       .  S
Cd982       O989   2.439       .  S
Cd982       O988   2.472       .  S
Cd982       O987   2.432       .  S
Cd982       O986   2.510       .  S
Cd982       O984   2.443       .  S
C985        O989   1.264       .  A
C985       C1866   1.491   1_655  S
O990        C993   1.271       .  A
O990       Cd995   2.490       .  S
C991       O1000   1.265       .  A
C991        O996   1.270   1_455  A
C991       C1765   1.490       .  S
O992        C998   1.271   1_655  A
O992       Cd995   2.527       .  S
C993       O1001   1.265       .  A
C993       C1818   1.485       .  S
C994        O999   1.274       .  A
C994        O997   1.266       .  A
C994       C1837   1.488       .  S
Cd995      O1002   2.424   1_655  S
Cd995      O1001   2.440       .  S
Cd995      O1000   2.440   1_655  S
Cd995       O996   2.512       .  S
Cd995       O999   2.495       .  S
Cd995       O997   2.418       .  S
C998       O1002   1.263       .  A
C998       C1789   1.492       .  S
O1003      C1006   1.271       .  A
O1003     Cd1008   2.505       .  S
C1004      O1013   1.266       .  A
C1004      O1009   1.272       .  A
C1004      C1693   1.496       .  S
O1005      C1011   1.270       .  A
O1005     Cd1008   2.502       .  S
C1006      O1014   1.263       .  A
C1006      C1842   1.484       .  S
C1007      O1012   1.272       .  A
C1007      O1010   1.265       .  A
C1007      C1741   1.486       .  S
Cd1008     O1015   2.445       .  S
Cd1008     O1014   2.421       .  S
Cd1008     O1013   2.437       .  S
Cd1008     O1009   2.492       .  S
Cd1008     O1012   2.500       .  S
Cd1008     O1010   2.425       .  S
C1011      O1015   1.265       .  A
C1011      C1722   1.486       .  S
O1016      C1019   1.271       .  A
O1016     Cd1021   2.498       .  S
C1017      O1026   1.265       .  A
C1017      O1022   1.271       .  A
C1017      C1621   1.484       .  S
O1018      C1024   1.270       .  A
O1018     Cd1021   2.491       .  S
C1019      O1027   1.265       .  A
C1019      C1933   1.488       .  S
C1020      O1025   1.270       .  A
C1020      O1023   1.268       .  A
C1020      C1669   1.492       .  S
Cd1021     O1028   2.420       .  S
Cd1021     O1027   2.448       .  S
Cd1021     O1026   2.449       .  S
Cd1021     O1022   2.496       .  S
Cd1021     O1025   2.480       .  S
Cd1021     O1023   2.440       .  S
C1024      O1028   1.263       .  A
C1024      C1645   1.485       .  S
O1029      C1032   1.272       .  A
O1029     Cd1034   2.499       .  S
C1030      O1039   1.262       .  A
C1030      O1035   1.271   1_565  A
C1030      C1578   1.491       .  S
O1031      C1037   1.270   1_545  A
O1031     Cd1034   2.504       .  S
C1032      O1040   1.267       .  A
C1032      C1909   1.492       .  S
C1033      O1038   1.266       .  A
C1033      O1036   1.262       .  A
C1033      C1602   1.484       .  S
Cd1034     O1041   2.446   1_545  S
Cd1034     O1040   2.426       .  S
Cd1034     O1039   2.426   1_545  S
Cd1034     O1035   2.508       .  S
Cd1034     O1038   2.489       .  S
Cd1034     O1036   2.455       .  S
C1037      O1041   1.266       .  A
C1037      C1549   1.496       .  S
O1042      C1045   1.267       .  A
O1042     Cd1047   2.481       .  S
C1043      O1052   1.266       .  A
C1043      O1048   1.270       .  A
C1043      C1501   1.496       .  S
C1045      O1053   1.262       .  A
C1045      C1813   1.482       .  S
C1046      O1051   1.273       .  A
C1046      C1530   1.490       .  S
Cd1047     O1054   2.438   1_545  S
Cd1047     O1053   2.452       .  S
Cd1047     O1052   2.456   1_545  S
Cd1047     O1048   2.499   1_545  S
Cd1047     O1049   2.423       .  S
C1050      O1054   1.263       .  A
C1050      C1477   1.492       .  S
O1055      C1058   1.269       .  A
O1055     Cd1060   2.489       .  S
C1056      O1065   1.265       .  A
C1056      O1061   1.271       .  A
C1056      C1453   1.486       .  S
O1057      C1063   1.271       .  A
O1057     Cd1060   2.506       .  S
C1058      O1066   1.266       .  A
C1058      C1674   1.489       .  S
C1059      O1064   1.271       .  A
C1059      O1062   1.263       .  A
C1059      C1525   1.481       .  S
Cd1060     O1067   2.435       .  S
Cd1060     O1066   2.435       .  S
Cd1060     O1065   2.423       .  S
Cd1060     O1061   2.462       .  S
Cd1060     O1064   2.515       .  S
Cd1060     O1062   2.415       .  S
C1063      O1067   1.264       .  A
C1063      C1429   1.488       .  S
O1068      C1071   1.272       .  A
O1068     Cd1073   2.488       .  S
C1069      O1078   1.266       .  A
C1069      O1074   1.271       .  A
C1069      C1386   1.493       .  S
O1070      C1076   1.271       .  A
O1070     Cd1073   2.497       .  S
C1071      O1079   1.265       .  A
C1071      C1597   1.482       .  S
C1072      O1077   1.273       .  A
C1072      O1075   1.265       .  A
C1072      C1746   1.490       .  S
Cd1073     O1080   2.438       .  S
Cd1073     O1079   2.426       .  S
Cd1073     O1078   2.436       .  S
Cd1073     O1074   2.492       .  S
Cd1073     O1077   2.495       .  S
Cd1073     O1075   2.417       .  S
C1076      O1080   1.265       .  A
C1076      C1405   1.485       .  S
O1081      C1084   1.270       .  A
O1081     Cd1086   2.510       .  S
C1082      O1091   1.263       .  A
C1082      O1087   1.271       .  A
C1082      C1434   1.484       .  S
O1083      C1089   1.270       .  A
O1083     Cd1086   2.501       .  S
C1084      O1092   1.265       .  A
C1084      C1338   1.489       .  S
C1085      O1090   1.271       .  A
C1085      O1088   1.266       .  A
C1085      C1357   1.490       .  S
Cd1086     O1093   2.439       .  S
Cd1086     O1092   2.447       .  S
Cd1086     O1091   2.429       .  S
Cd1086     O1087   2.507       .  S
Cd1086     O1090   2.497       .  S
Cd1086     O1088   2.432       .  S
C1089      O1093   1.265       .  A
C1089      C1861   1.495       .  S
O1094      C1097   1.270       .  A
O1094     Cd1099   2.490       .  S
C1095      O1104   1.264       .  A
C1095      O1100   1.271       .  A
C1095      C1770   1.486       .  S
O1096      C1102   1.270       .  A
O1096     Cd1099   2.506       .  S
C1097      O1105   1.266       .  A
C1097      C1309   1.495       .  S
C1098      O1103   1.271       .  A
C1098      O1101   1.265       .  A
C1098      C1285   1.490       .  S
Cd1099     O1106   2.438       .  S
Cd1099     O1105   2.452       .  S
Cd1099     O1104   2.426       .  S
Cd1099     O1100   2.508       .  S
Cd1099     O1103   2.494       .  S
Cd1099     O1101   2.433       .  S
C1102      O1106   1.265       .  A
C1102      C1381   1.492       .  S
O1107      C1110   1.270       .  A
O1107     Cd1112   2.493       .  S
C1108      O1117   1.266       .  A
C1108      O1113   1.270       .  A
C1108      C1573   1.488       .  S
O1109      C1115   1.271       .  A
O1109     Cd1112   2.508       .  S
C1110      O1118   1.263       .  A
C1110      C1314   1.481       .  S
C1111      O1116   1.270       .  A
C1111      O1114   1.264       .  A
C1111      C1261   1.494       .  S
Cd1112     O1119   2.444       .  S
Cd1112     O1118   2.421       .  S
Cd1112     O1117   2.424       .  S
Cd1112     O1113   2.501       .  S
Cd1112     O1116   2.505       .  S
Cd1112     O1114   2.453       .  S
C1115      O1119   1.265       .  A
C1115      C1698   1.490       .  S
O1120      C1123   1.267       .  A
O1120     Cd1125   2.484       .  S
C1121      O1130   1.266       .  A
C1121      O1126   1.270       .  A
C1121      C1626   1.488       .  S
O1122      C1128   1.269       .  A
O1122     Cd1125   2.520       .  S
C1123      O1131   1.264       .  A
C1123      C1237   1.485       .  S
C1124      O1129   1.271       .  A
C1124      O1127   1.266       .  A
C1124      C1362   1.487       .  S
Cd1125     O1132   2.452       .  S
Cd1125     O1131   2.477       .  S
Cd1125     O1130   2.453       .  S
Cd1125     O1126   2.491       .  S
Cd1125     O1129   2.494       .  S
Cd1125     O1127   2.444       .  S
C1128      O1132   1.263       .  A
C1128      C1506   1.497       .  S
O1133      C1136   1.268       .  A
O1133     Cd1138   2.475       .  S
C1134      O1143   1.263       .  A
C1134      O1139   1.269       .  A
C1134      C1458   1.482       .  S
O1135      C1141   1.270       .  A
O1135     Cd1138   2.515   1_545  S
C1136      O1144   1.265       .  A
C1136      C1218   1.470       .  S
C1137      O1142   1.270       .  A
C1137      O1140   1.267       .  A
C1137      C1242   1.493       .  S
Cd1138     O1145   2.442   1_565  S
Cd1138     O1144   2.427       .  S
Cd1138     O1143   2.420   1_565  S
Cd1138     O1139   2.502   1_565  S
Cd1138     O1142   2.489       .  S
Cd1138     O1140   2.474       .  S
C1141      O1145   1.263       .  A
C1141      C1794   1.489       .  S
O1146      C1149   1.270       .  A
O1146     Cd1151   2.511   1_556  S
C1147      O1156   1.263   1_556  A
C1147      O1152   1.270       .  A
C1147      C1410   1.493       .  S
C1149      O1157   1.266       .  A
C1149      C1189   1.496       .  S
C1150      O1155   1.269       .  A
C1150      C1266   1.480       .  S
Cd1151     O1158   2.457   1_564  S
Cd1151     O1157   2.460   1_554  S
Cd1151     O1156   2.440   1_565  S
Cd1151     O1152   2.518   1_564  S
Cd1151     O1153   2.445       .  S
C1154      O1158   1.263   1_554  A
C1154      C1890   1.490       .  S
O1159      C1162   1.273       .  A
O1159     Cd1164   2.487   1_455  S
C1160      O1169   1.265       .  A
C1160      O1165   1.271       .  A
C1160      C1717   1.496       .  S
C1162      O1170   1.265       .  A
C1162      C1213   1.492       .  S
C1163      O1168   1.269       .  A
C1163      C1290   1.482       .  S
Cd1164     O1171   2.444       .  S
Cd1164     O1170   2.436   1_655  S
Cd1164     O1169   2.437       .  S
Cd1164     O1165   2.508       .  S
Cd1164     O1166   2.435   1_655  S
C1167      O1171   1.265       .  A
C1167      C1482   1.488       .  S
O1172      C1175   1.268       .  A
O1172     Cd1177   2.498       .  S
C1173      O1182   1.264       .  A
C1173      O1178   1.269       .  A
C1173      C1650   1.496       .  S
O1174      C1180   1.269       .  A
O1174     Cd1177   2.510   1_655  S
C1175      O1183   1.263       .  A
C1175      C1194   1.487       .  S
C1176      O1181   1.271       .  A
C1176      O1179   1.267       .  A
C1176      C1333   1.493       .  S
Cd1177     O1184   2.450   1_455  S
Cd1177     O1183   2.458       .  S
Cd1177     O1182   2.469   1_455  S
Cd1177     O1178   2.492   1_455  S
Cd1177     O1181   2.484       .  S
Cd1177     O1179   2.438       .  S
C1180      O1184   1.264       .  A
C1180      C1554   1.495       .  S
C1185      C1186   1.408       .  A
C1185      C1190   1.403       .  A
C1185      C1199   1.444       .  S
C1186      C1191   1.493       .  S
C1186      C1187   1.405       .  A
C1187      C1188   1.407       .  A
C1187      H1206   1.085       .  S
C1188      C1189   1.417       .  A
C1188      C1200   1.444       .  S
C1189      C1190   1.409       .  A
C1190      H1205   1.085       .  S
C1191      C1192   1.404       .  A
C1191      C1196   1.410       .  A
C1192      C1193   1.402       .  A
C1192      H1207   1.079       .  S
C1193      C1194   1.413       .  A
C1193      C1197   1.443       .  S
C1194      C1195   1.407       .  A
C1195      C1196   1.405       .  A
C1195      H1208   1.083       .  S
C1196      C1198   1.443       .  S
C1197      N1201   1.157   1_455  T
C1198      N1202   1.157       .  T
C1199      N1204   1.157       .  T
C1200      N1203   1.157       .  T
C1209      C1210   1.414       .  A
C1209      C1214   1.402       .  A
C1209      C1223   1.444       .  S
C1210      C1215   1.493       .  S
C1210      C1211   1.402       .  A
C1211      C1212   1.401       .  A
C1211      H1230   1.086       .  S
C1212      C1213   1.420       .  A
C1212      C1224   1.444       .  S
C1213      C1214   1.405       .  A
C1214      H1229   1.085       .  S
C1215      C1216   1.406       .  A
C1215      C1220   1.416       .  A
C1216      C1217   1.399       .  A
C1216      H1231   1.084       .  S
C1217      C1218   1.407       .  A
C1217      C1221   1.444       .  S
C1218      C1219   1.402       .  A
C1219      C1220   1.403       .  A
C1219      H1232   1.084       .  S
C1220      C1222   1.445       .  S
C1221      N1225   1.157       .  T
C1222      N1226   1.157       .  T
C1223      N1228   1.157       .  T
C1224      N1227   1.157       .  T
C1233      C1234   1.411       .  A
C1233      C1238   1.406       .  A
C1233      C1247   1.444       .  S
C1234      C1239   1.493       .  S
C1234      C1235   1.404       .  A
C1235      C1236   1.403       .  A
C1235      H1254   1.071       .  S
C1236      C1237   1.412       .  A
C1236      C1248   1.444       .  S
C1237      C1238   1.407       .  A
C1238      H1253   1.081       .  S
C1239      C1240   1.404       .  A
C1239      C1244   1.410       .  A
C1240      C1241   1.404       .  A
C1240      H1255   1.085       .  S
C1241      C1242   1.416       .  A
C1241      C1245   1.444       .  S
C1242      C1243   1.409       .  A
C1243      C1244   1.405       .  A
C1243      H1256   1.085       .  S
C1244      C1246   1.444       .  S
C1245      N1249   1.157       .  T
C1246      N1250   1.157       .  T
C1247      N1252   1.157       .  T
C1248      N1251   1.157       .  T
C1257      C1258   1.417       .  A
C1257      C1262   1.405       .  A
C1257      C1271   1.444       .  S
C1258      C1263   1.500       .  S
C1258      C1259   1.403       .  A
C1259      C1260   1.401       .  A
C1259      H1278   1.085       .  S
C1260      C1261   1.417       .  A
C1260      C1272   1.442       .  S
C1261      C1262   1.405       .  A
C1262      H1277   1.085       .  S
C1263      C1264   1.407       .  A
C1263      C1268   1.418       .  A
C1264      C1265   1.402       .  A
C1264      H1279   1.085       .  S
C1265      C1266   1.411       .  A
C1266      C1267   1.402       .  A
C1267      C1268   1.403       .  A
C1267      H1280   1.085       .  S
C1268      C1270   1.444       .  S
C1269      N1273   1.157       .  T
C1270      N1274   1.157       .  T
C1272      N1275   1.157       .  T
C1281      C1282   1.408       .  A
C1281      C1286   1.401       .  A
C1281      C1295   1.445       .  S
C1282      C1287   1.488       .  S
C1282      C1283   1.405       .  A
C1283      C1284   1.403       .  A
C1283      H1302   1.083       .  S
C1284      C1285   1.415       .  A
C1284      C1296   1.444       .  S
C1285      C1286   1.410       .  A
C1286      H1301   1.083       .  S
C1287      C1288   1.405       .  A
C1287      C1292   1.410       .  A
C1288      C1289   1.404       .  A
C1288      H1303   1.084       .  S
C1289      C1290   1.414       .  A
C1289      C1293   1.444       .  S
C1290      C1291   1.405       .  A
C1291      C1292   1.399       .  A
C1291      H1304   1.085       .  S
C1292      C1294   1.444       .  S
C1293      N1297   1.157   1_455  T
C1294      N1298   1.157       .  T
C1295      N1300   1.157       .  T
C1296      N1299   1.157       .  T
C1305      C1306   1.409       .  A
C1305      C1310   1.401       .  A
C1305      C1319   1.445       .  S
C1306      C1311   1.490       .  S
C1306      C1307   1.404       .  A
C1307      C1308   1.405       .  A
C1307      H1326   1.085       .  S
C1308      C1309   1.418       .  A
C1308      C1320   1.444       .  S
C1309      C1310   1.410       .  A
C1310      H1325   1.084       .  S
C1311      C1312   1.402       .  A
C1311      C1316   1.414       .  A
C1312      C1313   1.400       .  A
C1312      H1327   1.085       .  S
C1313      C1314   1.415       .  A
C1313      C1317   1.445       .  S
C1314      C1315   1.404       .  A
C1315      C1316   1.403       .  A
C1315      H1328   1.085       .  S
C1316      C1318   1.443       .  S
C1317      N1321   1.158       .  T
C1318      N1322   1.157       .  T
C1319      N1324   1.157       .  T
C1320      N1323   1.158       .  T
C1329      C1330   1.410       .  A
C1329      C1334   1.401       .  A
C1329      C1343   1.444       .  S
C1330      C1335   1.490       .  S
C1330      C1331   1.404       .  A
C1331      C1332   1.405       .  A
C1331      H1350   1.085       .  S
C1332      C1333   1.417       .  A
C1332      C1344   1.444       .  S
C1333      C1334   1.409       .  A
C1334      H1349   1.084       .  S
C1335      C1336   1.401       .  A
C1335      C1340   1.412       .  A
C1336      C1337   1.401       .  A
C1336      H1351   1.085       .  S
C1337      C1338   1.416       .  A
C1337      C1341   1.445       .  S
C1338      C1339   1.407       .  A
C1339      C1340   1.407       .  A
C1339      H1352   1.085       .  S
C1340      C1342   1.444       .  S
C1341      N1345   1.157       .  T
C1342      N1346   1.157       .  T
C1343      N1348   1.157       .  T
C1344      N1347   1.157       .  T
C1353      C1354   1.407       .  A
C1353      C1358   1.400       .  A
C1353      C1367   1.444       .  S
C1354      C1355   1.403       .  A
C1355      C1356   1.406       .  A
C1356      C1357   1.416       .  A
C1356      C1368   1.443       .  S
C1357      C1358   1.409       .  A
C1358      H1373   1.084       .  S
C1359      C1360   1.400       .  A
C1359      C1364   1.410       .  A
C1360      C1361   1.402       .  A
C1360      H1375   1.084       .  S
C1361      C1362   1.417       .  A
C1361      C1365   1.445       .  S
C1362      C1363   1.406       .  A
C1363      C1364   1.404       .  A
C1363      H1376   1.084       .  S
C1365      N1369   1.157       .  T
C1366      N1370   1.157       .  T
C1367      N1372   1.157       .  T
C1377      C1378   1.411       .  A
C1377      C1382   1.400       .  A
C1377      C1391   1.445       .  S
C1378      C1383   1.495       .  S
C1378      C1379   1.407       .  A
C1379      C1380   1.405       .  A
C1379      H1398   1.083       .  S
C1380      C1381   1.415       .  A
C1380      C1392   1.443       .  S
C1381      C1382   1.408       .  A
C1382      H1397   1.083       .  S
C1383      C1384   1.406       .  A
C1383      C1388   1.411       .  A
C1384      C1385   1.403       .  A
C1384      H1399   1.083       .  S
C1385      C1386   1.416       .  A
C1385      C1389   1.443       .  S
C1386      C1387   1.409       .  A
C1387      C1388   1.402       .  A
C1387      H1400   1.083       .  S
C1388      C1390   1.444       .  S
C1389      N1393   1.157       .  T
C1390      N1394   1.157       .  T
C1391      N1396   1.157       .  T
C1392      N1395   1.157       .  T
C1401      C1402   1.414       .  A
C1401      C1406   1.403       .  A
C1401      C1415   1.444   1_556  S
C1402      C1407   1.492       .  S
C1402      C1403   1.403       .  A
C1403      C1404   1.404       .  A
C1403      H1422   1.084       .  S
C1404      C1405   1.416       .  A
C1404      C1416   1.445       .  S
C1405      C1406   1.403       .  A
C1406      H1421   1.084       .  S
C1407      C1408   1.405       .  A
C1407      C1412   1.409   1_556  A
C1408      C1409   1.407       .  A
C1408      H1423   1.084       .  S
C1409      C1410   1.416       .  A
C1409      C1413   1.443       .  S
C1410      C1411   1.409   1_556  A
C1411      C1412   1.401       .  A
C1411      H1424   1.084       .  S
C1412      C1414   1.444       .  S
C1413      N1417   1.157       .  T
C1415      N1420   1.157       .  T
C1416      N1419   1.157       .  T
C1425      C1426   1.410       .  A
C1425      C1430   1.401       .  A
C1425      C1439   1.444       .  S
C1426      C1431   1.490       .  S
C1426      C1427   1.405       .  A
C1427      C1428   1.405       .  A
C1427      H1446   1.084       .  S
C1428      C1429   1.414       .  A
C1428      C1440   1.444       .  S
C1429      C1430   1.407       .  A
C1430      H1445   1.084       .  S
C1431      C1432   1.402       .  A
C1431      C1436   1.413       .  A
C1432      C1433   1.400       .  A
C1432      H1447   1.085       .  S
C1433      C1434   1.415       .  A
C1433      C1437   1.445       .  S
C1434      C1435   1.405       .  A
C1435      C1436   1.405       .  A
C1435      H1448   1.084       .  S
C1436      C1438   1.444       .  S
C1437      N1441   1.157       .  T
C1438      N1442   1.157       .  T
C1439      N1444   1.157       .  T
C1440      N1443   1.157       .  T
C1449      C1450   1.411       .  A
C1449      C1454   1.399       .  A
C1449      C1463   1.444       .  S
C1450      C1455   1.485       .  S
C1450      C1451   1.401       .  A
C1451      C1452   1.400       .  A
C1451      H1470   1.086       .  S
C1452      C1453   1.420       .  A
C1452      C1464   1.445       .  S
C1453      C1454   1.405       .  A
C1454      H1469   1.085       .  S
C1455      C1456   1.400       .  A
C1455      C1460   1.411       .  A
C1456      C1457   1.396       .  A
C1456      H1471   1.085       .  S
C1457      C1458   1.416       .  A
C1457      C1461   1.445       .  S
C1458      C1459   1.406       .  A
C1459      C1460   1.404       .  A
C1459      H1472   1.084       .  S
C1460      C1462   1.444       .  S
C1461      N1465   1.157       .  T
C1462      N1466   1.157       .  T
C1463      N1468   1.157       .  T
C1464      N1467   1.158       .  T
C1473      C1474   1.414       .  A
C1473      C1478   1.402       .  A
C1474      C1475   1.402       .  A
C1475      C1476   1.400       .  A
C1475      H1494   1.085       .  S
C1476      C1477   1.420       .  A
C1476      C1488   1.445       .  S
C1477      C1478   1.406       .  A
C1478      H1493   1.085       .  S
C1479      C1480   1.403       .  A
C1480      C1481   1.401       .  A
C1480      H1495   1.085       .  S
C1481      C1482   1.417       .  A
C1481      C1485   1.444       .  S
C1483      C1484   1.402       .  A
C1483      H1496   1.084       .  S
C1484      C1486   1.445       .  S
C1485      N1489   1.157       .  T
C1486      N1490   1.157       .  T
C1487      N1492   1.157       .  T
C1488      N1491   1.158       .  T
C1497      C1498   1.411       .  A
C1497      C1502   1.402       .  A
C1497      C1511   1.444       .  S
C1498      C1503   1.498       .  S
C1498      C1499   1.407       .  A
C1499      C1500   1.407       .  A
C1499      H1518   1.085       .  S
C1500      C1501   1.417       .  A
C1500      C1512   1.444       .  S
C1501      C1502   1.409       .  A
C1502      H1517   1.085       .  S
C1503      C1504   1.407       .  A
C1503      C1508   1.411       .  A
C1504      C1505   1.407       .  A
C1504      H1519   1.083       .  S
C1505      C1506   1.416       .  A
C1505      C1509   1.443       .  S
C1506      C1507   1.410       .  A
C1507      C1508   1.402       .  A
C1507      H1520   1.083       .  S
C1508      C1510   1.445       .  S
C1510      N1514   1.157       .  T
C1511      N1516   1.157       .  T
C1512      N1515   1.157       .  T
C1521      C1522   1.413       .  A
C1521      C1526   1.407       .  A
C1521      C1535   1.443       .  S
C1522      C1527   1.491       .  S
C1522      C1523   1.402       .  A
C1523      C1524   1.397       .  A
C1523      H1542   1.085       .  S
C1524      C1525   1.413       .  A
C1524      C1536   1.445       .  S
C1525      C1526   1.404       .  A
C1526      H1541   1.083       .  S
C1527      C1528   1.406       .  A
C1527      C1532   1.410       .  A
C1528      C1529   1.407       .  A
C1528      H1543   1.085       .  S
C1529      C1530   1.416       .  A
C1529      C1533   1.444       .  S
C1530      C1531   1.406       .  A
C1531      C1532   1.398       .  A
C1532      C1534   1.444       .  S
C1533      N1537   1.157       .  T
C1534      N1538   1.157       .  T
C1535      N1540   1.157       .  T
C1536      N1539   1.157       .  T
C1545      C1546   1.410       .  A
C1545      C1550   1.401       .  A
C1545      C1559   1.445       .  S
C1546      C1551   1.496       .  S
C1546      C1547   1.406       .  A
C1547      C1548   1.406       .  A
C1547      H1566   1.084       .  S
C1548      C1549   1.418       .  A
C1548      C1560   1.443       .  S
C1549      C1550   1.409       .  A
C1550      H1565   1.083       .  S
C1551      C1552   1.406       .  A
C1551      C1556   1.411       .  A
C1552      C1553   1.406       .  A
C1552      H1567   1.084       .  S
C1553      C1554   1.417       .  A
C1553      C1557   1.443       .  S
C1554      C1555   1.409       .  A
C1555      C1556   1.401       .  A
C1555      H1568   1.084       .  S
C1556      C1558   1.445       .  S
C1557      N1561   1.157       .  T
C1558      N1562   1.157       .  T
C1559      N1564   1.157       .  T
C1560      N1563   1.157       .  T
C1569      C1570   1.411       .  A
C1569      C1574   1.407       .  A
C1569      C1583   1.444       .  S
C1570      C1575   1.486       .  S
C1570      C1571   1.399       .  A
C1571      C1572   1.397       .  A
C1571      H1590   1.085       .  S
C1572      C1573   1.416       .  A
C1572      C1584   1.444       .  S
C1573      C1574   1.409       .  A
C1574      H1589   1.084       .  S
C1575      C1576   1.399       .  A
C1575      C1580   1.411       .  A
C1576      C1577   1.401       .  A
C1576      H1591   1.084       .  S
C1577      C1578   1.421       .  A
C1577      C1581   1.445       .  S
C1578      C1579   1.406       .  A
C1579      C1580   1.403       .  A
C1579      H1592   1.084       .  S
C1580      C1582   1.444       .  S
C1581      N1585   1.157       .  T
C1582      N1586   1.157       .  T
C1583      N1588   1.157       .  T
C1584      N1587   1.157       .  T
C1593      C1594   1.412       .  A
C1593      C1598   1.402       .  A
C1593      C1607   1.444       .  S
C1594      C1599   1.486       .  S
C1594      C1595   1.402       .  A
C1595      C1596   1.403       .  A
C1595      H1614   1.085       .  S
C1596      C1597   1.415       .  A
C1596      C1608   1.444       .  S
C1597      C1598   1.403       .  A
C1598      H1613   1.084       .  S
C1599      C1600   1.401       .  A
C1599      C1604   1.411       .  A
C1600      C1601   1.401       .  A
C1600      H1615   1.085       .  S
C1601      C1602   1.414       .  A
C1601      C1605   1.444       .  S
C1602      C1603   1.406       .  A
C1603      C1604   1.404       .  A
C1603      H1616   1.084       .  S
C1604      C1606   1.444       .  S
C1605      N1609   1.157       .  T
C1606      N1610   1.157       .  T
C1607      N1612   1.157       .  T
C1608      N1611   1.157       .  T
C1617      C1618   1.414       .  A
C1617      C1622   1.404       .  A
C1617      C1631   1.444       .  S
C1618      C1623   1.494       .  S
C1618      C1619   1.404       .  A
C1619      C1620   1.403       .  A
C1619      H1638   1.084       .  S
C1620      C1621   1.414       .  A
C1620      C1632   1.444       .  S
C1621      C1622   1.403       .  A
C1622      H1637   1.084       .  S
C1623      C1624   1.406       .  A
C1623      C1628   1.412       .  A
C1624      C1625   1.406       .  A
C1624      H1639   1.084       .  S
C1625      C1626   1.414       .  A
C1625      C1629   1.444       .  S
C1626      C1627   1.406       .  A
C1627      C1628   1.402       .  A
C1627      H1640   1.084       .  S
C1628      C1630   1.444       .  S
C1629      N1633   1.157       .  T
C1630      N1634   1.157       .  T
C1631      N1636   1.157       .  T
C1632      N1635   1.157       .  T
C1641      C1642   1.412       .  A
C1641      C1646   1.403       .  A
C1641      C1655   1.443       .  S
C1642      C1647   1.490       .  S
C1642      C1643   1.402       .  A
C1643      C1644   1.400       .  A
C1643      H1662   1.084       .  S
C1644      C1645   1.417       .  A
C1644      C1656   1.445       .  S
C1645      C1646   1.405       .  A
C1646      H1661   1.084       .  S
C1647      C1648   1.401       .  A
C1647      C1652   1.410       .  A
C1648      C1649   1.403       .  A
C1648      H1663   1.085       .  S
C1649      C1650   1.421       .  A
C1649      C1653   1.444       .  S
C1650      C1651   1.408       .  A
C1651      C1652   1.403       .  A
C1651      H1664   1.085       .  S
C1652      C1654   1.444       .  S
C1653      N1657   1.157       .  T
C1654      N1658   1.157       .  T
C1655      N1660   1.157       .  T
C1656      N1659   1.158       .  T
C1665      C1666   1.410       .  A
C1665      C1670   1.400       .  A
C1665      C1679   1.444       .  S
C1666      C1671   1.490       .  S
C1666      C1667   1.405       .  A
C1667      C1668   1.403       .  A
C1667      H1686   1.084       .  S
C1668      C1669   1.417       .  A
C1668      C1680   1.444       .  S
C1669      C1670   1.408       .  A
C1670      H1685   1.084       .  S
C1671      C1672   1.401       .  A
C1671      C1676   1.413       .  A
C1672      C1673   1.399       .  A
C1672      H1687   1.085       .  S
C1673      C1674   1.417       .  A
C1673      C1677   1.443       .  S
C1674      C1675   1.407       .  A
C1675      C1676   1.405       .  A
C1675      H1688   1.084       .  S
C1676      C1678   1.444       .  S
C1677      N1681   1.157       .  T
C1678      N1682   1.157       .  T
C1679      N1684   1.157       .  T
C1680      N1683   1.158       .  T
C1689      C1690   1.414       .  A
C1689      C1694   1.405       .  A
C1689      C1703   1.444       .  S
C1690      C1695   1.496       .  S
C1690      C1691   1.402       .  A
C1691      C1692   1.401       .  A
C1691      H1710   1.085       .  S
C1692      C1693   1.420       .  A
C1692      C1704   1.444       .  S
C1693      C1694   1.408       .  A
C1694      H1709   1.085       .  S
C1695      C1696   1.403       .  A
C1695      C1700   1.415       .  A
C1696      C1697   1.402       .  A
C1696      H1711   1.084       .  S
C1697      C1698   1.416       .  A
C1697      C1701   1.444       .  S
C1698      C1699   1.406       .  A
C1699      C1700   1.406       .  A
C1699      H1712   1.084       .  S
C1700      C1702   1.444       .  S
C1701      N1705   1.157       .  T
C1702      N1706   1.157       .  T
C1703      N1708   1.157       .  T
C1704      N1707   1.157       .  T
C1713      C1714   1.410       .  A
C1713      C1718   1.402       .  A
C1713      C1727   1.444       .  S
C1714      C1719   1.497       .  S
C1714      C1715   1.407       .  A
C1715      C1716   1.406       .  A
C1715      H1734   1.084       .  S
C1716      C1717   1.416       .  A
C1716      C1728   1.443       .  S
C1717      C1718   1.410       .  A
C1718      H1733   1.084       .  S
C1719      C1720   1.407       .  A
C1719      C1724   1.413       .  A
C1720      C1721   1.406       .  A
C1720      H1735   1.083       .  S
C1721      C1722   1.413       .  A
C1721      C1725   1.444       .  S
C1722      C1723   1.405       .  A
C1723      C1724   1.401       .  A
C1723      H1736   1.083       .  S
C1724      C1726   1.445       .  S
C1726      N1730   1.157       .  T
C1727      N1732   1.157       .  T
C1728      N1731   1.157       .  T
C1737      C1738   1.407       .  A
C1737      C1742   1.399       .  A
C1737      C1751   1.443       .  S
C1738      C1739   1.405       .  A
C1739      C1740   1.405       .  A
C1740      C1741   1.414       .  A
C1740      C1752   1.443       .  S
C1741      C1742   1.407       .  A
C1742      H1757   1.085       .  S
C1743      C1744   1.399   1_554  A
C1744      C1745   1.399       .  A
C1744      H1759   1.086       .  S
C1745      C1746   1.419       .  A
C1745      C1749   1.444       .  S
C1746      C1747   1.406   1_556  A
C1747      H1760   1.084       .  S
C1748      C1750   1.444       .  S
C1749      N1753   1.157       .  T
C1750      N1754   1.157       .  T
C1751      N1756   1.157       .  T
C1752      N1755   1.157       .  T
C1761      C1762   1.407       .  A
C1761      C1766   1.400       .  A
C1761      C1775   1.444       .  S
C1762      C1767   1.487       .  S
C1762      C1763   1.404       .  A
C1763      C1764   1.406       .  A
C1763      H1782   1.084       .  S
C1764      C1765   1.416       .  A
C1764      C1776   1.443       .  S
C1765      C1766   1.408       .  A
C1766      H1781   1.084       .  S
C1767      C1768   1.400       .  A
C1767      C1772   1.412       .  A
C1768      C1769   1.401       .  A
C1768      H1783   1.085       .  S
C1769      C1770   1.416       .  A
C1769      C1773   1.445       .  S
C1770      C1771   1.406       .  A
C1771      C1772   1.405       .  A
C1771      H1784   1.084       .  S
C1772      C1774   1.444       .  S
C1773      N1777   1.157       .  T
C1774      N1778   1.157       .  T
C1775      N1780   1.157       .  T
C1776      N1779   1.157       .  T
C1785      C1786   1.415       .  A
C1785      C1790   1.407       .  A
C1785      C1799   1.444       .  S
C1786      C1791   1.495       .  S
C1786      C1787   1.402       .  A
C1787      C1788   1.401       .  A
C1787      H1806   1.085       .  S
C1788      C1789   1.418       .  A
C1788      C1800   1.445       .  S
C1789      C1790   1.406       .  A
C1790      H1805   1.084       .  S
C1791      C1792   1.407       .  A
C1791      C1796   1.411       .  A
C1792      C1793   1.405       .  A
C1792      H1807   1.084       .  S
C1793      C1794   1.413       .  A
C1793      C1797   1.443       .  S
C1794      C1795   1.408       .  A
C1795      C1796   1.402       .  A
C1795      H1808   1.084       .  S
C1796      C1798   1.444       .  S
C1797      N1801   1.157       .  T
C1798      N1802   1.157       .  T
C1799      N1804   1.157       .  T
C1800      N1803   1.157       .  T
C1809      C1810   1.410       .  A
C1809      C1814   1.402       .  A
C1809      C1823   1.443       .  S
C1810      C1815   1.486       .  S
C1810      C1811   1.403       .  A
C1811      C1812   1.403       .  A
C1811      H1830   1.084       .  S
C1812      C1813   1.414       .  A
C1812      C1824   1.445       .  S
C1813      C1814   1.403       .  A
C1814      H1829   1.082       .  S
C1815      C1816   1.401       .  A
C1815      C1820   1.411       .  A
C1816      C1817   1.402       .  A
C1816      H1831   1.085       .  S
C1817      C1818   1.416       .  A
C1817      C1821   1.443       .  S
C1818      C1819   1.404       .  A
C1819      C1820   1.403       .  A
C1819      H1832   1.085       .  S
C1820      C1822   1.443       .  S
C1821      N1825   1.157       .  T
C1822      N1826   1.157       .  T
C1823      N1828   1.157       .  T
C1824      N1827   1.157       .  T
C1833      C1834   1.415       .  A
C1833      C1838   1.404       .  A
C1833      C1847   1.444       .  S
C1834      C1839   1.493       .  S
C1834      C1835   1.402       .  A
C1835      C1836   1.401       .  A
C1835      H1854   1.085       .  S
C1836      C1837   1.418       .  A
C1836      C1848   1.445       .  S
C1837      C1838   1.405       .  A
C1838      H1853   1.085       .  S
C1839      C1840   1.402       .  A
C1839      C1844   1.416       .  A
C1840      C1841   1.399       .  A
C1840      H1855   1.085       .  S
C1841      C1842   1.415       .  A
C1841      C1845   1.445       .  S
C1842      C1843   1.404       .  A
C1843      C1844   1.405       .  A
C1843      H1856   1.084       .  S
C1844      C1846   1.444       .  S
C1845      N1849   1.157       .  T
C1846      N1850   1.157       .  T
C1847      N1852   1.157       .  T
C1848      N1851   1.157       .  T
C1857      C1858   1.409       .  A
C1857      C1862   1.400       .  A
C1857      C1871   1.445       .  S
C1858      C1863   1.492       .  S
C1858      C1859   1.405       .  A
C1859      C1860   1.406       .  A
C1859      H1878   1.083       .  S
C1860      C1861   1.417       .  A
C1860      C1872   1.444       .  S
C1861      C1862   1.410       .  A
C1862      H1877   1.083       .  S
C1863      C1864   1.406       .  A
C1863      C1868   1.409       .  A
C1864      C1865   1.405       .  A
C1864      H1879   1.084       .  S
C1865      C1866   1.416       .  A
C1865      C1869   1.444   1_455  S
C1866      C1867   1.409       .  A
C1867      C1868   1.400       .  A
C1867      H1880   1.084       .  S
C1868      C1870   1.444       .  S
C1869      N1873   1.157       .  T
C1870      N1874   1.157       .  T
C1871      N1876   1.157       .  T
C1881      C1886   1.405       .  A
C1881      C1895   1.444   1_554  S
C1882      C1883   1.401       .  A
C1883      C1884   1.402       .  A
C1883      H1902   1.086       .  S
C1884      C1885   1.420       .  A
C1884      C1896   1.444       .  S
C1886      H1901   1.085   1_554  S
C1887      C1888   1.401       .  A
C1888      C1889   1.402       .  A
C1888      H1903   1.085       .  S
C1889      C1890   1.417       .  A
C1889      C1893   1.444   1_554  S
C1890      C1891   1.406       .  A
C1892      C1894   1.443       .  S
C1893      N1897   1.157       .  T
C1894      N1898   1.157       .  T
C1895      N1900   1.157       .  T
C1896      N1899   1.157       .  T
C1905      C1906   1.409       .  A
C1905      C1910   1.399       .  A
C1905      C1919   1.444       .  S
C1906      C1911   1.491       .  S
C1906      C1907   1.405       .  A
C1907      C1908   1.407       .  A
C1907      H1926   1.085       .  S
C1908      C1909   1.417       .  A
C1908      C1920   1.444       .  S
C1909      C1910   1.407       .  A
C1910      H1925   1.084       .  S
C1911      C1912   1.403       .  A
C1911      C1916   1.413       .  A
C1912      C1913   1.399       .  A
C1912      H1927   1.085       .  S
C1913      C1914   1.413       .  A
C1913      C1917   1.445       .  S
C1914      C1915   1.404       .  A
C1915      C1916   1.407       .  A
C1915      H1928   1.085       .  S
C1916      C1918   1.443       .  S
C1917      N1921   1.157       .  T
C1918      N1922   1.157       .  T
C1919      N1924   1.157       .  T
C1920      N1923   1.157       .  T
C1929      C1930   1.414       .  A
C1929      C1934   1.403       .  A
C1929      C1943   1.444       .  S
C1930      C1935   1.501       .  S
C1930      C1931   1.409       .  A
C1931      C1932   1.405       .  A
C1931      H1950   1.083       .  S
C1932      C1933   1.413       .  A
C1932      C1944   1.444       .  S
C1933      C1934   1.406       .  A
C1934      H1949   1.083       .  S
C1935      C1936   1.408       .  A
C1935      C1940   1.413       .  A
C1936      C1937   1.407       .  A
C1936      H1951   1.083       .  S
C1937      C1938   1.415       .  A
C1937      C1941   1.444       .  S
C1938      C1939   1.406   1_556  A
C1939      C1940   1.403   1_554  A
C1940      C1942   1.444       .  S
C1941      N1945   1.157       .  T
C1942      N1946   1.157   1_556  T
C1943      N1948   1.157       .  T
C1944      N1947   1.157       .  T
