geometry optimzed in LAMMPS
_audit_creation_date              2020-12-01 
_audit_creation_method            'lammps2cif' 
_symmetry_space_group_name_H-M    'P1' 
_symmetry_Int_Tables_number       1 
_symmetry_cell_setting            triclinic 
loop_ 
_symmetry_equiv_pos_as_xyz 
  x,y,z 
_cell_length_a                    45.36567209 
_cell_length_b                    35.57618912459692 
_cell_length_c                    38.10960912205923 
_cell_angle_alpha                 91.00142447134489 
_cell_angle_beta                  90.40258302878794 
_cell_angle_gamma                 90.08556855923504 
loop_ 
_atom_site_label 
_atom_site_type_symbol 
_atom_site_fract_x 
_atom_site_fract_y 
_atom_site_fract_z 
_atom_site_charge 
C1          C  0.68876042  0.23391890  0.25012809    -0.01700
C2          C  0.81395867  0.48368496  0.25360724    -0.01700
C3          C  0.31389989  0.26625117  0.24891594    -0.01700
C4          C  0.19211022  0.51788598  0.25722882    -0.01700
O5          O  0.98178235  0.45727832  0.04440616    -0.73700
O6          O  0.03477091  0.46621016  0.46899784    -0.73700
O7          O  0.04034423  0.47345838  0.04112441    -0.73800
O8          O  0.97528930  0.45319086  0.47280873    -0.73800
O9          O  0.96818215  0.01070634  0.46220732    -0.73700
O10         O  0.02494037  0.03049725  0.03268454    -0.73700
O11         O  0.02692025  0.02361770  0.46232839    -0.73700
O12         O  0.96660074  0.01386891  0.03383051    -0.73800
Ni13       Ni  0.00748795  0.45891302  0.50624551     1.25400
Ni14       Ni  0.99696322  0.02039872  0.49766453     1.25400
C15         C  0.96738673  0.48584243  0.05556694     0.88500
C16         C  0.04067910  0.49875254  0.45708095     0.88400
C17         C  0.04519908  0.50740387  0.05172830     0.88500
C18         C  0.96084528  0.48165216  0.46147265     0.88600
O19         O  0.47696463  0.29373710  0.46058473    -0.73700
O20         O  0.53184446  0.28776983  0.03481388    -0.73700
O21         O  0.53714885  0.29050842  0.46609549    -0.73800
O22         O  0.47189871  0.29318375  0.03087510    -0.73800
O23         O  0.46840925  0.23107114  0.03319556    -0.73700
O24         O  0.53365856  0.22840850  0.46648416    -0.73700
O25         O  0.52743569  0.22539933  0.03778399    -0.73700
O26         O  0.47388197  0.23135770  0.46339295    -0.73800
Ni27       Ni  0.50341314  0.29025724  0.99748232     1.25400
Ni28       Ni  0.49931619  0.22359909  0.00032532     1.25400
C29         C  0.46538063  0.26253329  0.45039250     0.88500
C30         C  0.53891279  0.25641921  0.04849097     0.88400
C31         C  0.54651801  0.25809891  0.45594453     0.88500
C32         C  0.45934282  0.26369146  0.04266992     0.88600
C33         C  0.10509019  0.03535788  0.39934250    -0.04700
C34         C  0.10974376  0.50838635  0.37947905     0.09400
C35         C  0.09128959  0.47643058  0.37961816    -0.02100
C36         C  0.06839027  0.47369427  0.40427301    -0.00400
C37         C  0.06426870  0.50239355  0.43007396    -0.04000
C38         C  0.08349702  0.03068733  0.42544084     0.03000
C39         C  0.13094312  0.51332080  0.34980875     0.09900
C40         C  0.09568435  0.44644675  0.35384810     0.35800
C41         C  0.08138480  0.05834885  0.45374006     0.39200
C42         C  0.15953082  0.00628290  0.34615750    -0.04300
C43         C  0.17827440  0.00935525  0.31673259     0.02800
C44         C  0.16975136  0.51612128  0.28983414    -0.03900
C45         C  0.13794791  0.51827190  0.28668874    -0.00200
C46         C  0.11991930  0.52184854  0.31655447    -0.02700
C47         C  0.17141267  0.99645748  0.38030871     0.36500
C48         C  0.12165466  0.50852477  0.25504120     0.40100
C49         C  0.20958649  0.00818524  0.32441221     0.39300
C50         C  0.08886962  0.53141261  0.31275177     0.36200
C51         C  0.12328884  0.06889602  0.39943491     0.36900
C52         C  0.04853317  0.44173216  0.40195804     0.40100
N53         N  0.23394475  0.00726859  0.33358657    -0.37900
N54         N  0.18083316  0.98864457  0.40751835    -0.39500
N55         N  0.10737642  0.49873771  0.23132243    -0.37300
N56         N  0.06418734  0.53900541  0.30985348    -0.39700
N57         N  0.09919249  0.42254072  0.33332465    -0.39400
N58         N  0.03286453  0.41609487  0.39986025    -0.37100
N59         N  0.07986413  0.08024142  0.47647937    -0.38100
N60         N  0.13782452  0.09565580  0.39976655    -0.39800
C61         C  0.12072372  0.51416543  0.09559709    -0.04700
C62         C  0.11296796  0.52370888  0.13060540     0.09400
C63         C  0.07801112  0.02907980  0.13029762    -0.02100
C64         C  0.05636286  0.02591072  0.10367859    -0.00400
C65         C  0.06880522  0.51540686  0.07792662    -0.04000
C66         C  0.09856973  0.50820521  0.06983548     0.03000
C67         C  0.13590070  0.52340948  0.15958416     0.09900
C68         C  0.06893508  0.03988365  0.16546406     0.35800
C69         C  0.10648564  0.49645462  0.03449686     0.39200
C70         C  0.13670879  0.05434830  0.17175430    -0.04300
C71         C  0.15333216  0.05233621  0.20327376     0.02800
C72         C  0.17441912  0.51981559  0.22049863    -0.03900
C73         C  0.17308341  0.49004781  0.19422042    -0.00200
C74         C  0.15142099  0.49031062  0.16729751    -0.02700
C75         C  0.12443704  0.09000638  0.16072232     0.36500
C76         C  0.19492712  0.46064566  0.19053087     0.40100
C77         C  0.15012510  0.08415938  0.22724667     0.39300
C78         C  0.14513765  0.45591925  0.14740073     0.36200
C79         C  0.15151036  0.51118342  0.08592908     0.36900
C80         C  0.02648826  0.03846706  0.11056096     0.40100
N81         N  0.14578145  0.11030098  0.24494995    -0.37900
N82         N  0.11467693  0.11841177  0.15197077    -0.39500
N83         N  0.21192004  0.43696467  0.18541378    -0.37300
N84         N  0.14028676  0.42855479  0.13151670    -0.39700
N85         N  0.06106634  0.04907221  0.19313097    -0.39400
N86         N  0.00284300  0.04912837  0.11604869    -0.37100
N87         N  0.11272946  0.48727111  0.00623180    -0.38100
N88         N  0.17608034  0.50894794  0.07820644    -0.39800
C89         C  0.26290190  0.34846629  0.28572470    -0.04700
C90         C  0.26227537  0.37461651  0.25865598     0.09400
C91         C  0.27886321  0.36735227  0.22841647    -0.02100
C92         C  0.29723049  0.33521861  0.22576943    -0.00400
C93         C  0.29560143  0.30513470  0.25098996    -0.04000
C94         C  0.27770405  0.31359390  0.28145056     0.03000
C95         C  0.24488148  0.41069114  0.26222775     0.09900
C96         C  0.27829939  0.39461296  0.20032466     0.35800
C97         C  0.27206581  0.28637018  0.30842907     0.39200
C98         C  0.25944576  0.44542585  0.26531239    -0.04300
C99         C  0.24355166  0.47978963  0.26502915     0.02800
C100        C  0.21173398  0.48036546  0.26072257    -0.03900
C101        C  0.19757816  0.44399017  0.26289288    -0.00200
C102        C  0.21399302  0.41010360  0.26231458    -0.02700
C103        C  0.29133854  0.44551758  0.26991088     0.36500
C104        C  0.16582225  0.43941878  0.26318379     0.40100
C105        C  0.26112313  0.51297506  0.27316469     0.39300
C106        C  0.19876063  0.37411177  0.26027418     0.36200
C107        C  0.24781808  0.35753165  0.31833803     0.36900
C108        C  0.31990219  0.33841100  0.19944534     0.40100
N109        N  0.27188227  0.03958827  0.27026086    -0.37900
N110        N  0.31668260  0.44550513  0.27361138    -0.39500
N111        N  0.14094923  0.43221629  0.26362439    -0.37300
N112        N  0.18625095  0.34575221  0.25885724    -0.39700
N113        N  0.27828351  0.41635281  0.17808435    -0.39400
N114        N  0.33771938  0.34398224  0.17857715    -0.37100
N115        N  0.26548696  0.26694388  0.33112677    -0.38100
N116        N  0.23577336  0.36480331  0.34424543    -0.39800
C117        C  0.22353427  0.11894327  0.27088005    -0.04700
C118        C  0.24004376  0.12555477  0.24059854     0.09400
C119        C  0.23958863  0.09849678  0.21338221    -0.02100
C120        C  0.22484075  0.06365380  0.21738754    -0.00400
C121        C  0.20718868  0.05580210  0.24791122    -0.04000
C122        C  0.20609166  0.08599665  0.27399981     0.03000
C123        C  0.25829062  0.16108748  0.23794718     0.09900
C124        C  0.25456578  0.10669013  0.18078817     0.35800
C125        C  0.18537463  0.08758600  0.30273703     0.39200
C126        C  0.28913564  0.15944488  0.23886056    -0.04300
C127        C  0.30639709  0.19273451  0.24004100     0.02800
C128        C  0.29317478  0.22962028  0.24367478    -0.03900
C129        C  0.26136021  0.23021619  0.23930723    -0.00200
C130        C  0.24469960  0.19639775  0.23598842    -0.02700
C131        C  0.30342602  0.12291613  0.24034022     0.36500
C132        C  0.24451600  0.26431246  0.23435108     0.40100
C133        C  0.33798479  0.18681796  0.24040492     0.39300
C134        C  0.21307592  0.19764273  0.22937560     0.36200
C135        C  0.22349443  0.14747704  0.29876775     0.36900
C136        C  0.23001628  0.03554825  0.19009440     0.40100
N137        N  0.36253728  0.17805136  0.24033313    -0.37900
N138        N  0.31520581  0.09413476  0.24143900    -0.39500
N139        N  0.23000480  0.29039710  0.22917514    -0.37300
N140        N  0.18797135  0.19858776  0.22384160    -0.39700
N141        N  0.26645084  0.11323816  0.15481932    -0.39400
N142        N  0.23587044  0.01470397  0.16757174    -0.37100
N143        N  0.16910813  0.09167022  0.32576364    -0.38100
N144        N  0.22298485  0.17026366  0.32080078    -0.39800
C145        C  0.34945492  0.23773808  0.34151866    -0.04700
C146        C  0.37095612  0.26566710  0.34603127     0.09400
C147        C  0.37084815  0.29642667  0.32355485    -0.02100
C148        C  0.35103360  0.29781397  0.29469667    -0.00400
C149        C  0.33196353  0.26638028  0.28554176    -0.04000
C150        C  0.32999523  0.23777636  0.31217054     0.03000
C151        C  0.39402470  0.26284240  0.37444206     0.09900
C152        C  0.39294876  0.32575891  0.32873203     0.35800
C153        C  0.30702378  0.20951718  0.31320056     0.39200
C154        C  0.41684701  0.23591192  0.37162942    -0.04300
C155        C  0.44043414  0.23621973  0.39598724     0.02800
C156        C  0.44096744  0.26266769  0.42408991    -0.03900
C157        C  0.41731258  0.28833886  0.42792550    -0.00200
C158        C  0.39394220  0.28829020  0.40329123    -0.02700
C159        C  0.41595400  0.20736175  0.34400750     0.36500
C160        C  0.41646708  0.31421152  0.45778652     0.40100
C161        C  0.46475100  0.21019431  0.39122177     0.39300
C162        C  0.36946041  0.31408530  0.40786330     0.36200
C163        C  0.34696579  0.20915164  0.36822240     0.36900
C164        C  0.35351149  0.33092166  0.27326281     0.40100
N165        N  0.48421245  0.18956899  0.38735049    -0.37900
N166        N  0.41518756  0.18393205  0.32256395    -0.39500
N167        N  0.41578982  0.33484546  0.48158759    -0.37300
N168        N  0.34992184  0.33464642  0.41142470    -0.39700
N169        N  0.41059945  0.34897356  0.33282880    -0.39400
N170        N  0.35733309  0.35858252  0.25840867    -0.37100
N171        N  0.28911036  0.18663682  0.31632299    -0.38100
N172        N  0.34490531  0.18657408  0.38956842    -0.39800
C173        C  0.38483352  0.26641608  0.18688973    -0.04700
C174        C  0.37187666  0.26704887  0.15352987     0.09400
C175        C  0.34125642  0.26352824  0.15016186    -0.02100
C176        C  0.32315817  0.26161136  0.18026219    -0.00400
C177        C  0.33541876  0.26413592  0.21546866    -0.04000
C178        C  0.36738945  0.26284425  0.21726807     0.03000
C179        C  0.39115296  0.26818610  0.12177982     0.09900
C180        C  0.32819009  0.26410222  0.11518719     0.35800
C181        C  0.38416673  0.25275146  0.24812497     0.39200
C182        C  0.39540569  0.23529328  0.10138815    -0.04300
C183        C  0.41555642  0.23509677  0.07347443     0.02800
C184        C  0.43418136  0.26667536  0.06795487    -0.03900
C185        C  0.42906434  0.30013916  0.08791490    -0.00200
C186        C  0.40700197  0.30107150  0.11385379    -0.02700
C187        C  0.37982547  0.20101983  0.11006106     0.36500
C188        C  0.44688513  0.33353096  0.08308127     0.40100
C189        C  0.41624995  0.20236619  0.05017748     0.39300
C190        C  0.40125584  0.33574363  0.13321999     0.36200
C191        C  0.41690697  0.26777785  0.18970967     0.36900
C192        C  0.29174614  0.26049050  0.17317050     0.40100
N193        N  0.41653834  0.17632525  0.03154748    -0.37900
N194        N  0.36748812  0.17371280  0.11714330    -0.39500
N195        N  0.46101938  0.36028831  0.07948143    -0.37300
N196        N  0.39697922  0.36366010  0.14835710    -0.39700
N197        N  0.31786210  0.26463033  0.08734533    -0.39400
N198        N  0.26734057  0.25966585  0.16413895    -0.37100
N199        N  0.39937380  0.24378950  0.27098303    -0.38100
N200        N  0.44235233  0.26895997  0.19187954    -0.39800
C201        C  0.87596811  0.00241850  0.31433455    -0.04700
C202        C  0.87153111  0.47782852  0.35024628     0.09400
C203        C  0.84808842  0.45245880  0.34598413    -0.02100
C204        C  0.83090459  0.45163547  0.31470767    -0.00400
C205        C  0.83336827  0.48085561  0.28892816    -0.04000
C206        C  0.85477784  0.00673602  0.28737132     0.03000
C207        C  0.89203502  0.47579137  0.38143213     0.09900
C208        C  0.84220863  0.42609673  0.37384856     0.35800
C209        C  0.85666029  0.04163838  0.26845148     0.39200
C210        C  0.89265514  0.99986425  0.39652102    -0.04300
C211        C  0.91417458  0.00112140  0.42334515     0.02800
C212        C  0.93550062  0.47716057  0.43591297    -0.03900
C213        C  0.93415708  0.44674539  0.41131118    -0.00200
C214        C  0.91302583  0.44665582  0.38377620    -0.02700
C215        C  0.86906579  0.02741458  0.39634240     0.36500
C216        C  0.95438551  0.41541166  0.41380951     0.40100
C217        C  0.91221292  0.03087381  0.44983016     0.39300
C218        C  0.91346048  0.41714251  0.35701067     0.36200
C219        C  0.90089825  0.02810907  0.31731456     0.36900
C220        C  0.81471507  0.41715710  0.30887111     0.40100
N221        N  0.91055516  0.05477180  0.47072019    -0.37900
N222        N  0.85038289  0.04952198  0.39636072    -0.39500
N223        N  0.96999973  0.38983892  0.41588458    -0.37300
N224        N  0.91368181  0.39368287  0.33559346    -0.39700
N225        N  0.83746314  0.40520722  0.39606241    -0.39400
N226        N  0.80402398  0.38781423  0.30535689    -0.37100
N227        N  0.85958390  0.07092131  0.25617451    -0.38100
N228        N  0.92069379  0.04856209  0.31978336    -0.39800
C229        C  0.88089378  0.45301671  0.19334090    -0.04700
C230        C  0.88305420  0.48199197  0.16913676     0.09200
C231        C  0.86301514  0.01174699  0.16615682    -0.02100
C232        C  0.84093683  0.01402441  0.19229787    -0.00400
C233        C  0.83881697  0.48511254  0.22363400    -0.04000
C234        C  0.86051566  0.45524148  0.22124468     0.03000
C235        C  0.90496939  0.47982772  0.13978322     0.09900
C236        C  0.86955448  0.04401959  0.14445076     0.35800
C237        C  0.86142423  0.42411654  0.24535857     0.39200
C238        C  0.89515388  0.47651481  0.10454231    -0.04300
C239        C  0.91560260  0.47782062  0.07686034     0.02800
C240        C  0.94599765  0.48105125  0.08427860    -0.03900
C241        C  0.95170794  0.97228369  0.11012559    -0.00200
C242        C  0.93169060  0.97451470  0.13819036    -0.02700
C243        C  0.86399721  0.47193831  0.09673033     0.36500
C244        C  0.98250111  0.96422438  0.11700858     0.40100
C245        C  0.90548016  0.47349926  0.04085622     0.39300
C246        C  0.94269761  0.97630406  0.17401873     0.36200
C247        C  0.89912441  0.41969948  0.18857067     0.36900
C248        C  0.82652120  0.05023906  0.19450347     0.40100
N249        N  0.89707682  0.46917548  0.01233848    -0.37900
N250        N  0.83917246  0.46839600  0.09028160    -0.39500
N251        N  0.00685136  0.95664312  0.12268763    -0.37300
N252        N  0.95140792  0.97784360  0.20262579    -0.39700
N253        N  0.87488425  0.06967040  0.12732327    -0.39400
N254        N  0.81683099  0.08032502  0.19452304    -0.37100
N255        N  0.86392486  0.39808970  0.26293155    -0.38100
N256        N  0.91358690  0.39319122  0.18476132    -0.39800
C257        C  0.75510896  0.06212124  0.21857144    -0.04700
C258        C  0.75837833  0.08941220  0.24550430     0.09400
C259        C  0.77525287  0.08054924  0.27520586    -0.02100
C260        C  0.78945709  0.04528619  0.27775992    -0.00400
C261        C  0.79103004  0.01959371  0.24796201    -0.04000
C262        C  0.77087347  0.02763907  0.21966202     0.03000
C263        C  0.74118913  0.12581496  0.24500019     0.09900
C264        C  0.77662205  0.10738189  0.30442151     0.35800
C265        C  0.76689117  0.00194739  0.19005821     0.39200
C266        C  0.71112073  0.12568520  0.25283106    -0.04300
C267        C  0.69461593  0.15952014  0.25368776     0.02800
C268        C  0.70828746  0.19600201  0.24900345    -0.03900
C269        C  0.74006206  0.19501059  0.24529554    -0.00200
C270        C  0.75544000  0.16045866  0.24070106    -0.02700
C271        C  0.69705482  0.08992837  0.26045346     0.36500
C272        C  0.75883577  0.22770133  0.25019619     0.40100
C273        C  0.66335181  0.15436262  0.25912375     0.39300
C274        C  0.78674392  0.16049767  0.23278941     0.36200
C275        C  0.73620373  0.07017640  0.18873744     0.36900
C276        C  0.79756043  0.03461975  0.31314267     0.40100
N277        N  0.63917702  0.14566729  0.26414225    -0.37900
N278        N  0.68598114  0.06148025  0.26658310    -0.39500
N279        N  0.77507302  0.25252048  0.25460267    -0.37300
N280        N  0.81166169  0.16084096  0.22651746    -0.39700
N281        N  0.77774543  0.12882364  0.32758209    -0.39400
N282        N  0.80299552  0.02678579  0.34181928    -0.37100
N283        N  0.76233024  0.98287977  0.16571341    -0.38100
N284        N  0.72116624  0.07616403  0.16483686    -0.39800
C285        C  0.73396210  0.32683530  0.27780336    -0.04700
C286        C  0.74183138  0.34177775  0.24526875     0.09400
C287        C  0.73326461  0.32142424  0.21480626    -0.02100
C288        C  0.72088568  0.28489573  0.21732425    -0.00400
C289        C  0.70847888  0.27179355  0.24983227    -0.04000
C290        C  0.71333568  0.29713016  0.27941707     0.03000
C291        C  0.75785471  0.37926307  0.24350523     0.09900
C292        C  0.73637653  0.33825725  0.18057364     0.35800
C293        C  0.69447787  0.30030484  0.30963872     0.39200
C294        C  0.78409712  0.38321327  0.22448294    -0.04300
C295        C  0.79710356  0.41897833  0.22102232     0.02800
C296        C  0.79220066  0.44824028  0.24702921    -0.03900
C297        C  0.76520459  0.44371971  0.26642973    -0.00200
C298        C  0.74694295  0.41155082  0.26111220    -0.02700
C299        C  0.79803237  0.35079237  0.20801577     0.36500
C300        C  0.75573044  0.47024541  0.29327606     0.40100
C301        C  0.80973221  0.42570405  0.18687979     0.39300
C302        C  0.71697482  0.41148962  0.27433846     0.36200
C303        C  0.74490567  0.34380564  0.31038703     0.36900
C304        C  0.72238092  0.26147243  0.18587534     0.40100
N305        N  0.81894136  0.43007283  0.15899533    -0.37900
N306        N  0.80924240  0.32500292  0.19489124    -0.39500
N307        N  0.74049648  0.99383531  0.30385200    -0.37300
N308        N  0.69305198  0.41144730  0.28468990    -0.39700
N309        N  0.73869228  0.35164089  0.15326420    -0.39400
N310        N  0.72493281  0.24451400  0.15988610    -0.37100
N311        N  0.68055632  0.30655488  0.33435478    -0.38100
N312        N  0.75267105  0.35667589  0.33698426    -0.39800
C313        C  0.60633594  0.28123721  0.38856347    -0.04700
C314        C  0.61808447  0.24524721  0.38115128     0.09400
C315        C  0.60850044  0.21430748  0.40056995    -0.02100
C316        C  0.58664855  0.21890876  0.42642843    -0.00400
C317        C  0.57256769  0.25439940  0.43176186    -0.04000
C318        C  0.58344471  0.28580479  0.41318082     0.03000
C319        C  0.63600816  0.23877085  0.34868295     0.09900
C320        C  0.61988868  0.17704247  0.39239728     0.35800
C321        C  0.57053458  0.32288116  0.41769999     0.39200
C322        C  0.66586284  0.22808132  0.35006377    -0.04300
C323        C  0.68244003  0.22406991  0.31867801     0.02800
C324        C  0.66915264  0.23093534  0.28490005    -0.03900
C325        C  0.63733407  0.23283267  0.28499927    -0.00200
C326        C  0.62175193  0.24025702  0.31607510    -0.02700
C327        C  0.68012164  0.22419271  0.38401890     0.36500
C328        C  0.61907113  0.21989151  0.25593758     0.40100
C329        C  0.71370775  0.21646618  0.32243449     0.39300
C330        C  0.59013356  0.24740415  0.31458183     0.36200
C331        C  0.61635184  0.31345495  0.36901670     0.36900
C332        C  0.57895680  0.18647357  0.44709852     0.40100
N333        N  0.73850961  0.21040148  0.32678840    -0.37900
N334        N  0.69147273  0.22106612  0.41110012    -0.39500
N335        N  0.60392884  0.20787779  0.23395075    -0.37300
N336        N  0.56505833  0.25323805  0.31343545    -0.39700
N337        N  0.62893674  0.14738059  0.38577400    -0.39400
N338        N  0.57297366  0.16042669  0.46340459    -0.37100
N339        N  0.56038446  0.35255535  0.42097302    -0.38100
N340        N  0.62366205  0.33956317  0.35358312    -0.39800
C341        C  0.61104246  0.25972710  0.09928953    -0.04700
C342        C  0.60169436  0.24867929  0.13285166     0.09400
C343        C  0.57137814  0.24231354  0.13893581    -0.02100
C344        C  0.55080894  0.24574293  0.11133840    -0.00400
C345        C  0.56034751  0.25570081  0.07766877    -0.04000
C346        C  0.59039561  0.26330919  0.07177274     0.03000
C347        C  0.62399705  0.24480532  0.16169694     0.09900
C348        C  0.56083191  0.23259487  0.17338087     0.35800
C349        C  0.60022978  0.27398236  0.03724773     0.39200
C350        C  0.62865706  0.27449539  0.18566531    -0.04300
C351        C  0.64984289  0.27143737  0.21283736     0.02800
C352        C  0.66773200  0.23799823  0.21647026    -0.03900
C353        C  0.66508054  0.21051865  0.18824206    -0.00200
C354        C  0.64228165  0.21308600  0.16283022    -0.02700
C355        C  0.61080501  0.30822304  0.18270140     0.36500
C356        C  0.68695410  0.18180138  0.18114872     0.40100
C357        C  0.65105286  0.30255627  0.23797462     0.39300
C358        C  0.63785782  0.18304338  0.13693235     0.36200
C359        C  0.64199300  0.26742533  0.09316563     0.36900
C360        C  0.51960095  0.23987559  0.11773148     0.40100
N361        N  0.65085063  0.32837938  0.25686470    -0.37900
N362        N  0.59648947  0.33495440  0.18023815    -0.39500
N363        N  0.70421902  0.15919001  0.17361970    -0.37300
N364        N  0.63435256  0.15912323  0.11634695    -0.39700
N365        N  0.55080907  0.22509342  0.20020522    -0.39400
N366        N  0.49473411  0.23539731  0.12285488    -0.37100
N367        N  0.60841125  0.28252402  0.00983459    -0.38100
N368        N  0.66670357  0.27347227  0.08841348    -0.39800
C369        C  0.68900455  0.23351301  0.75153973    -0.01700
C370        C  0.81472417  0.48296201  0.75547743    -0.01700
C371        C  0.31365218  0.26385883  0.74749965    -0.01700
C372        C  0.19187109  0.51538322  0.75552078    -0.01700
O373        O  0.98000640  0.45529693  0.54384839    -0.73700
O374        O  0.03730925  0.46896411  0.97056975    -0.73700
O375        O  0.03877334  0.46986675  0.53954551    -0.73800
O376        O  0.97807891  0.45446585  0.97331335    -0.73800
O377        O  0.96607617  0.01242921  0.96273906    -0.73700
O378        O  0.02643804  0.02678294  0.53300642    -0.73700
O379        O  0.02449532  0.02733999  0.96185019    -0.73700
O380        O  0.96776883  0.01201027  0.53330512    -0.73800
Ni381      Ni  0.00971227  0.46132629  0.00734234     1.25400
Ni382      Ni  0.99512218  0.02314429  0.99774361     1.25400
C383        C  0.96628284  0.48416685  0.55556160     0.88500
C384        C  0.04265006  0.50139013  0.95807621     0.88400
C385        C  0.04433957  0.50356194  0.55038426     0.88500
C386        C  0.96341926  0.48250291  0.96146767     0.88600
O387        O  0.47470561  0.28869640  0.96062043    -0.73700
O388        O  0.53269887  0.29502589  0.53640087    -0.73700
O389        O  0.53433314  0.28229646  0.96399785    -0.73800
O390        O  0.47273863  0.29706740  0.53102825    -0.73800
O391        O  0.47242328  0.23488762  0.53394042    -0.73700
O392        O  0.53078761  0.22036415  0.96753574    -0.73700
O393        O  0.53171860  0.23230197  0.53709961    -0.73700
O394        O  0.47109873  0.22625829  0.96278950    -0.73800
Ni395      Ni  0.50497449  0.29637620  0.49838598     1.25400
Ni396      Ni  0.50287951  0.22956882  0.50020653     1.25400
C397        C  0.46296760  0.25774880  0.95012798     0.88500
C398        C  0.54154415  0.26385101  0.54888467     0.88400
C399        C  0.54327367  0.24935701  0.95494042     0.88500
C400        C  0.46178084  0.26673861  0.54326469     0.88600
C401        C  0.10239454  0.04012706  0.89778503    -0.04700
C402        C  0.10913714  0.51165288  0.87737388     0.09400
C403        C  0.09267827  0.47822866  0.88016150    -0.02100
C404        C  0.07081413  0.47503307  0.90602442    -0.00400
C405        C  0.06568294  0.50500998  0.93032841    -0.04000
C406        C  0.08036951  0.03595116  0.92346799     0.03000
C407        C  0.13026034  0.51554284  0.84755273     0.09900
C408        C  0.09802655  0.44713668  0.85582901     0.35800
C409        C  0.07702059  0.06495506  0.95037869     0.39200
C410        C  0.15845670  0.00695929  0.84710308    -0.04300
C411        C  0.17756434  0.00859595  0.81787477     0.02800
C412        C  0.16925254  0.51475965  0.78778023    -0.03900
C413        C  0.13748885  0.51686647  0.78419895    -0.00200
C414        C  0.11923440  0.52157651  0.81378825    -0.02700
C415        C  0.16958563  0.99654754  0.88142158     0.36500
C416        C  0.12149007  0.50690994  0.75239166     0.40100
C417        C  0.20878092  0.00620279  0.82580508     0.39300
C418        C  0.08808716  0.53027984  0.80940550     0.36200
C419        C  0.11959567  0.07445235  0.89663116     0.36900
C420        C  0.05337424  0.44084629  0.90673227     0.40100
N421        N  0.23312791  0.00440756  0.83488129    -0.37900
N422        N  0.17836526  0.98809664  0.90875187    -0.39500
N423        N  0.10732760  0.49711136  0.72857612    -0.37300
N424        N  0.06334350  0.53730602  0.80601329    -0.39700
N425        N  0.10227061  0.42239902  0.83640613    -0.39400
N426        N  0.03980405  0.41330278  0.90711567    -0.37100
N427        N  0.07447562  0.08797828  0.97197819    -0.38100
N428        N  0.13319266  0.10196806  0.89590127    -0.39800
C429        C  0.12052462  0.50588528  0.59333446    -0.04700
C430        C  0.11372479  0.51830182  0.62789393     0.09400
C431        C  0.07848182  0.02673888  0.63054856    -0.02100
C432        C  0.05713501  0.02347534  0.60363053    -0.00400
C433        C  0.06856182  0.51068719  0.57613400    -0.04000
C434        C  0.09781661  0.50041179  0.56813295     0.03000
C435        C  0.13698646  0.51848021  0.65658636     0.09900
C436        C  0.06928842  0.03933136  0.66518052     0.35800
C437        C  0.10475906  0.48604023  0.53330134     0.39200
C438        C  0.13739992  0.05133596  0.67182728    -0.04300
C439        C  0.15399263  0.05008346  0.70340851     0.02800
C440        C  0.17471698  0.51640003  0.71834162    -0.03900
C441        C  0.17319430  0.48568953  0.69306314    -0.00200
C442        C  0.15153007  0.48521617  0.66611255    -0.02700
C443        C  0.12597766  0.08690017  0.65939370     0.36500
C444        C  0.19499992  0.45619462  0.69013306     0.40100
C445        C  0.15154791  0.08299769  0.72619708     0.39300
C446        C  0.14419908  0.44992729  0.64829732     0.36200
C447        C  0.15095910  0.49969845  0.58338763     0.36900
C448        C  0.02764318  0.03805290  0.60935738     0.40100
N449        N  0.14794104  0.11007307  0.74288259    -0.37900
N450        N  0.11689988  0.11522776  0.64950457    -0.39500
N451        N  0.21196372  0.43236280  0.68558757    -0.37300
N452        N  0.13846121  0.42178829  0.63413851    -0.39700
N453        N  0.06140544  0.04985256  0.69244480    -0.39400
N454        N  0.00429398  0.05023016  0.61381588    -0.37100
N455        N  0.11020259  0.47475426  0.50542868    -0.38100
N456        N  0.17524406  0.49486944  0.57539722    -0.39800
C457        C  0.26211516  0.34498134  0.78532299    -0.04700
C458        C  0.26164767  0.37186425  0.75888636     0.09400
C459        C  0.27817865  0.36517680  0.72846878    -0.02100
C460        C  0.29616036  0.33272896  0.72485212    -0.00400
C461        C  0.29484915  0.30236208  0.74977666    -0.04000
C462        C  0.27685246  0.31015385  0.78032657     0.03000
C463        C  0.24426721  0.40795386  0.76306526     0.09900
C464        C  0.27787565  0.39331113  0.70113299     0.35800
C465        C  0.27105329  0.28220157  0.80662552     0.39200
C466        C  0.25886481  0.44262670  0.76645400    -0.04300
C467        C  0.24312251  0.47709523  0.76516897     0.02800
C468        C  0.21134946  0.47782140  0.76029674    -0.03900
C469        C  0.19705943  0.44156984  0.76294973    -0.00200
C470        C  0.21336950  0.40755140  0.76270092    -0.02700
C471        C  0.29063353  0.44250931  0.77218401     0.36500
C472        C  0.16528544  0.43726796  0.76327588     0.40100
C473        C  0.26083069  0.51033228  0.77249794     0.39300
C474        C  0.19808484  0.37162496  0.76020684     0.36200
C475        C  0.24712389  0.35332525  0.81814649     0.36900
C476        C  0.31778551  0.33544567  0.69728769     0.40100
N477        N  0.27209623  0.03720859  0.77178097    -0.37900
N478        N  0.31586852  0.44228627  0.77685753    -0.39500
N479        N  0.14034170  0.43048707  0.76381743    -0.37300
N480        N  0.18569239  0.34320155  0.75829899    -0.39700
N481        N  0.27810915  0.41575518  0.67951669    -0.39400
N482        N  0.33462122  0.34074707  0.67523703    -0.37100
N483        N  0.26436355  0.26198592  0.82866629    -0.38100
N484        N  0.23522098  0.35997320  0.84428405    -0.39800
C485        C  0.22494087  0.11589980  0.77230781    -0.04700
C486        C  0.24108573  0.12252422  0.74174890     0.09400
C487        C  0.24004717  0.09573639  0.71431474    -0.02100
C488        C  0.22504471  0.06112593  0.71833575    -0.00400
C489        C  0.20738200  0.05360569  0.74890224    -0.04000
C490        C  0.20663947  0.08374867  0.77502451     0.03000
C491        C  0.25897245  0.15818917  0.73856214     0.09900
C492        C  0.25466150  0.10395596  0.68149284     0.35800
C493        C  0.18515339  0.08656007  0.80289257     0.39200
C494        C  0.28984208  0.15685298  0.73783490    -0.04300
C495        C  0.30683530  0.19034502  0.73810848     0.02800
C496        C  0.29332476  0.22701856  0.74206027    -0.03900
C497        C  0.26148716  0.22726734  0.73837924    -0.00200
C498        C  0.24498794  0.19329365  0.73696746    -0.02700
C499        C  0.30444688  0.12050739  0.73909694     0.36500
C500        C  0.24448496  0.26100496  0.73207849     0.40100
C501        C  0.33849047  0.18500115  0.73718456     0.39300
C502        C  0.21305706  0.19421017  0.73304394     0.36200
C503        C  0.22596913  0.14365977  0.80084461     0.36900
C504        C  0.22967139  0.03306394  0.69084895     0.40100
N505        N  0.36321264  0.17715055  0.73595537    -0.37900
N506        N  0.31633754  0.09178920  0.74007723    -0.39500
N507        N  0.22995536  0.28685657  0.72603392    -0.37300
N508        N  0.18766962  0.19489475  0.72991342    -0.39700
N509        N  0.26629182  0.11055182  0.65537249    -0.39400
N510        N  0.23494766  0.01219788  0.66813433    -0.37100
N511        N  0.16827279  0.09167426  0.82510859    -0.38100
N512        N  0.22618468  0.16565112  0.82358378    -0.39800
C513        C  0.34910228  0.23474949  0.83984169    -0.04700
C514        C  0.36966314  0.26356045  0.84522637     0.09400
C515        C  0.36861427  0.29516137  0.82379971    -0.02100
C516        C  0.34956006  0.29598461  0.79420204    -0.00400
C517        C  0.33133439  0.26396784  0.78433258    -0.04000
C518        C  0.32974222  0.23483184  0.81049736     0.03000
C519        C  0.39279521  0.26045784  0.87337529     0.09900
C520        C  0.38882379  0.32618789  0.83102318     0.35800
C521        C  0.30733976  0.20588664  0.81118970     0.39200
C522        C  0.41632145  0.23466821  0.86939092    -0.04300
C523        C  0.43958790  0.23435779  0.89405091     0.02800
C524        C  0.43889441  0.25859079  0.92371264    -0.03900
C525        C  0.41449088  0.28275683  0.92884498    -0.00200
C526        C  0.39151833  0.28361800  0.90376935    -0.02700
C527        C  0.41632017  0.20740687  0.84065557     0.36500
C528        C  0.41246803  0.30586952  0.96051100     0.40100
C529        C  0.46475708  0.20995492  0.88816246     0.39300
C530        C  0.36606963  0.30750306  0.90967174     0.36200
C531        C  0.34741751  0.20522419  0.86578133     0.36900
C532        C  0.35223960  0.32887524  0.77246046     0.40100
N533        N  0.48485970  0.19062527  0.88327347    -0.37900
N534        N  0.41646169  0.18473349  0.81850444    -0.39500
N535        N  0.41083483  0.32422285  0.98579835    -0.37300
N536        N  0.34570828  0.32645006  0.91434522    -0.39700
N537        N  0.40483870  0.35090299  0.83685738    -0.39400
N538        N  0.35606231  0.35607428  0.75689244    -0.37100
N539        N  0.29005752  0.18226325  0.81436501    -0.38100
N540        N  0.34602638  0.18194298  0.88654137    -0.39800
C541        C  0.38538821  0.26619742  0.68679985    -0.04700
C542        C  0.37297763  0.26527982  0.65315406     0.09400
C543        C  0.34255137  0.25978082  0.64922233    -0.02100
C544        C  0.32397886  0.25842634  0.67899096    -0.00400
C545        C  0.33563067  0.26229111  0.71439667    -0.04000
C546        C  0.36758725  0.26217228  0.71680281     0.03000
C547        C  0.39278690  0.26707683  0.62186716     0.09900
C548        C  0.33014502  0.25724759  0.61395807     0.35800
C549        C  0.38415794  0.25255896  0.74789287     0.39200
C550        C  0.39924973  0.23402591  0.60262488    -0.04300
C551        C  0.42002387  0.23463727  0.57534088     0.02800
C552        C  0.43664436  0.26782452  0.56881883    -0.03900
C553        C  0.42956868  0.30121838  0.58800816    -0.00200
C554        C  0.40726868  0.30089617  0.61368120    -0.02700
C555        C  0.38531967  0.19880987  0.61192998     0.36500
C556        C  0.44572458  0.33588825  0.58280105     0.40100
C557        C  0.42364997  0.20073541  0.55402271     0.39300
C558        C  0.39999032  0.33528492  0.63273976     0.36200
C559        C  0.41735665  0.26925855  0.69034381     0.36900
C560        C  0.29269122  0.25607774  0.67133569     0.40100
N561        N  0.42638429  0.17364383  0.53710428    -0.37900
N562        N  0.37429940  0.17074822  0.61946220    -0.39500
N563        N  0.45852042  0.36367360  0.57895494    -0.37300
N564        N  0.39452064  0.36289124  0.64780778    -0.39700
N565        N  0.32035511  0.25507717  0.58586967    -0.39400
N566        N  0.26837351  0.25415211  0.66209279    -0.37100
N567        N  0.39937666  0.24428647  0.77094352    -0.38100
N568        N  0.44271119  0.27173166  0.69310838    -0.39800
C569        C  0.87565694  0.00167280  0.81284718    -0.04700
C570        C  0.87433716  0.47588786  0.85016764     0.09400
C571        C  0.85089663  0.45045180  0.84641622    -0.02100
C572        C  0.83252198  0.45051838  0.81609656    -0.00400
C573        C  0.83450107  0.47999980  0.79048631    -0.04000
C574        C  0.85457552  0.00539682  0.78563373     0.03000
C575        C  0.89498581  0.47439487  0.88120979     0.09900
C576        C  0.84626672  0.42309118  0.87379052     0.35800
C577        C  0.85652582  0.03982689  0.76598734     0.39200
C578        C  0.89170100  0.00042090  0.89561784    -0.04300
C579        C  0.91262844  0.00168173  0.92314053     0.02800
C580        C  0.93842381  0.47731891  0.93561438    -0.03900
C581        C  0.93773631  0.44683953  0.91105541    -0.00200
C582        C  0.91644862  0.44582825  0.88368190    -0.02700
C583        C  0.86831671  0.02820632  0.89458716     0.36500
C584        C  0.95894976  0.41655502  0.91328485     0.40100
C585        C  0.90978098  0.03099546  0.94992631     0.39300
C586        C  0.91705649  0.41581613  0.85741401     0.36200
C587        C  0.90055488  0.02742971  0.81550335     0.36900
C588        C  0.81516588  0.41683130  0.81112295     0.40100
N589        N  0.90736971  0.05441551  0.97117302    -0.37900
N590        N  0.84988021  0.05063252  0.89403703    -0.39500
N591        N  0.97542456  0.39184848  0.91507384    -0.37300
N592        N  0.91739484  0.39181649  0.83652692    -0.39700
N593        N  0.84261451  0.40129428  0.89553400    -0.39400
N594        N  0.80346728  0.38803409  0.80844892    -0.37100
N595        N  0.85946596  0.06871296  0.75294599    -0.38100
N596        N  0.92035215  0.04791429  0.81763826    -0.39800
C597        C  0.88156203  0.45220809  0.69503891    -0.04700
C598        C  0.88377912  0.48128196  0.67095926     0.09200
C599        C  0.86138109  0.00888593  0.66371569    -0.02100
C600        C  0.83960780  0.01162242  0.69024405    -0.00400
C601        C  0.83937505  0.48419031  0.72523680    -0.04000
C602        C  0.86105808  0.45428382  0.72281236     0.03000
C603        C  0.90527371  0.47892674  0.64121599     0.09900
C604        C  0.86736535  0.04064389  0.64117168     0.35800
C605        C  0.86179295  0.42296757  0.74673829     0.39200
C606        C  0.89486669  0.47583115  0.60620171    -0.04300
C607        C  0.91485692  0.47687124  0.57806498     0.02800
C608        C  0.94537349  0.47978880  0.58478856    -0.03900
C609        C  0.95122767  0.97151643  0.60943050    -0.00200
C610        C  0.93078415  0.97303368  0.63711535    -0.02700
C611        C  0.86352676  0.47202086  0.59910669     0.36500
C612        C  0.98209046  0.96462607  0.61695931     0.40100
C613        C  0.90408692  0.47300076  0.54228244     0.39300
C614        C  0.94130547  0.97505900  0.67313505     0.36200
C615        C  0.89986437  0.41895946  0.69027748     0.36900
C616        C  0.82510983  0.04779818  0.69216094     0.40100
N617        N  0.89515546  0.46914580  0.51393747    -0.37900
N618        N  0.83853376  0.46921715  0.59333995    -0.39500
N619        N  0.00649982  0.95787371  0.62317547    -0.37300
N620        N  0.94964252  0.97669514  0.70189259    -0.39700
N621        N  0.87229254  0.06585754  0.62333373    -0.39400
N622        N  0.81533526  0.07783978  0.69189719    -0.37100
N623        N  0.86405054  0.39682429  0.76420981    -0.38100
N624        N  0.91439516  0.39250986  0.68648732    -0.39800
C625        C  0.75424006  0.06123683  0.71915169    -0.04700
C626        C  0.75756426  0.08808200  0.74643261     0.09400
C627        C  0.77477199  0.07890365  0.77576259    -0.02100
C628        C  0.78922428  0.04373060  0.77762240    -0.00400
C629        C  0.79048535  0.01832818  0.74752618    -0.04000
C630        C  0.76990518  0.02665213  0.71973682     0.03000
C631        C  0.74061700  0.12469624  0.74620545     0.09900
C632        C  0.77641436  0.10537764  0.80525111     0.35800
C633        C  0.76527943  0.00112190  0.69014794     0.39200
C634        C  0.71042060  0.12494831  0.75339765    -0.04300
C635        C  0.69406546  0.15890845  0.75316980     0.02800
C636        C  0.70814494  0.19527725  0.74937170    -0.03900
C637        C  0.74001164  0.19385636  0.74660208    -0.00200
C638        C  0.75516154  0.15914240  0.74209934    -0.02700
C639        C  0.69611655  0.08957973  0.76177394     0.36500
C640        C  0.75905469  0.22616269  0.75230960     0.40100
C641        C  0.66251664  0.15409773  0.75640956     0.39300
C642        C  0.78657529  0.15873689  0.73476937     0.36200
C643        C  0.73564393  0.07010490  0.68926172     0.36900
C644        C  0.79775718  0.03275987  0.81278205     0.40100
N645        N  0.63798351  0.14591865  0.75945759    -0.37900
N646        N  0.68486578  0.06147780  0.76871875    -0.39500
N647        N  0.77545051  0.25071381  0.75722971    -0.37300
N648        N  0.81158420  0.15849105  0.72900620    -0.39700
N649        N  0.77784543  0.12648085  0.82865929    -0.39400
N650        N  0.80342482  0.02466360  0.84132756    -0.37100
N651        N  0.76013022  0.98222725  0.66585050    -0.38100
N652        N  0.72097288  0.07692810  0.66525321    -0.39800
C653        C  0.73349533  0.32694950  0.78103356    -0.04700
C654        C  0.74111244  0.34216782  0.74849937     0.09400
C655        C  0.73296667  0.32170176  0.71801624    -0.02100
C656        C  0.72163701  0.28471481  0.72035806    -0.00400
C657        C  0.70929536  0.27093605  0.75264439    -0.04000
C658        C  0.71430916  0.29552825  0.78275228     0.03000
C659        C  0.75748376  0.37940267  0.74658166     0.09900
C660        C  0.73545882  0.33891424  0.68387424     0.35800
C661        C  0.69842879  0.29398822  0.81526447     0.39200
C662        C  0.78381709  0.38264355  0.72758912    -0.04300
C663        C  0.79721537  0.41810372  0.72370240     0.02800
C664        C  0.79261552  0.44777688  0.74935464    -0.03900
C665        C  0.76557928  0.44392136  0.76888580    -0.00200
C666        C  0.74694023  0.41203861  0.76389354    -0.02700
C667        C  0.79747624  0.34972601  0.71165005     0.36500
C668        C  0.75640048  0.47085734  0.79553226     0.40100
C669        C  0.81007277  0.42405405  0.68954938     0.39300
C670        C  0.71699959  0.41260902  0.77719756     0.36200
C671        C  0.74389509  0.34478754  0.81350406     0.36900
C672        C  0.72446545  0.26121772  0.68907191     0.40100
N673        N  0.81950352  0.42773779  0.66167272    -0.37900
N674        N  0.80843609  0.32348752  0.69901485    -0.39500
N675        N  0.74103973  0.99186532  0.80524529    -0.37300
N676        N  0.69310392  0.41308555  0.78763420    -0.39700
N677        N  0.73721477  0.35266554  0.65666735    -0.39400
N678        N  0.72815966  0.24396013  0.66346042    -0.37100
N679        N  0.68710794  0.29644107  0.84228093    -0.38100
N680        N  0.75124248  0.35837049  0.83996940    -0.39800
C681        C  0.60985231  0.27082573  0.89664471    -0.04700
C682        C  0.61480321  0.23567222  0.88014650     0.09400
C683        C  0.59727185  0.20464893  0.88902542    -0.02100
C684        C  0.57406017  0.20888626  0.91319853    -0.00400
C685        C  0.56845641  0.24446276  0.92969730    -0.04000
C686        C  0.58719117  0.27521161  0.92156010     0.03000
C687        C  0.63380835  0.23288599  0.84829166     0.09900
C688        C  0.60201112  0.16867314  0.87131299     0.35800
C689        C  0.58331731  0.31198934  0.93804061     0.39200
C690        C  0.66294307  0.21957875  0.84979773    -0.04300
C691        C  0.68059833  0.21867236  0.81908836     0.02800
C692        C  0.66853926  0.22927459  0.78553393    -0.03900
C693        C  0.63677309  0.23261847  0.78472530    -0.00200
C694        C  0.62081802  0.23932656  0.81560581    -0.02700
C695        C  0.67514836  0.20865633  0.88338772     0.36500
C696        C  0.61871411  0.22136543  0.75480309     0.40100
C697        C  0.71166064  0.21016638  0.82365980     0.39300
C698        C  0.58985730  0.24995322  0.81363799     0.36200
C699        C  0.62692830  0.30339041  0.88668410     0.36900
C700        C  0.55527978  0.17656876  0.91913013     0.40100
N701        N  0.73632318  0.20363733  0.82852320    -0.37900
N702        N  0.68482787  0.19977688  0.91016415    -0.39500
N703        N  0.60377055  0.21078779  0.73197284    -0.37300
N704        N  0.56523896  0.25830053  0.81218810    -0.39700
N705        N  0.60574936  0.14013066  0.85701926    -0.39400
N706        N  0.54039875  0.15064282  0.92357193    -0.37100
N707        N  0.58048753  0.34143672  0.95096682    -0.38100
N708        N  0.63967924  0.33032793  0.87944890    -0.39800
C709        C  0.61423103  0.26744571  0.59855695    -0.04700
C710        C  0.60488675  0.25949486  0.63294750     0.09400
C711        C  0.57438672  0.25654494  0.63999299    -0.02100
C712        C  0.55366636  0.25857908  0.61240240    -0.00400
C713        C  0.56323142  0.26415910  0.57782590    -0.04000
C714        C  0.59342866  0.26963756  0.57099998     0.03000
C715        C  0.62727541  0.25349951  0.66143925     0.09900
C716        C  0.56394181  0.25238384  0.67555374     0.35800
C717        C  0.60307794  0.27703284  0.53556468     0.39200
C718        C  0.63221309  0.28126810  0.68727059    -0.04300
C719        C  0.65170308  0.27468086  0.71556173     0.02800
C720        C  0.66849182  0.24011564  0.71782993    -0.03900
C721        C  0.66565719  0.21450710  0.68818884    -0.00200
C722        C  0.64404959  0.22035122  0.66183806    -0.02700
C723        C  0.61638850  0.31666819  0.68508569     0.36500
C724        C  0.68587869  0.18383796  0.68128483     0.40100
C725        C  0.65201204  0.30306699  0.74348205     0.39300
C726        C  0.63907729  0.19197283  0.63447379     0.36200
C727        C  0.64524253  0.27383606  0.59174109     0.36900
C728        C  0.52236377  0.25543707  0.61960551     0.40100
N729        N  0.65114102  0.32627322  0.76511834    -0.37900
N730        N  0.60371717  0.34478352  0.68328957    -0.39500
N731        N  0.70184048  0.15965290  0.67390163    -0.37300
N732        N  0.63514449  0.16940761  0.61269442    -0.39700
N733        N  0.55454333  0.24994649  0.70357230    -0.39400
N734        N  0.49742363  0.25309519  0.62539024    -0.37100
N735        N  0.61078123  0.28302157  0.50731608    -0.38100
N736        N  0.66999107  0.27907948  0.58648370    -0.39800
C737        C  0.68712867  0.73176387  0.24679779    -0.01700
C738        C  0.81133142  0.98263294  0.24660530    -0.01700
C739        C  0.31481098  0.76953000  0.24490603    -0.01700
C740        C  0.18809031  0.01755635  0.24864024    -0.01700
O741        O  0.97732384  0.95269316  0.03511400    -0.73700
O742        O  0.03469974  0.96191106  0.46270858    -0.73700
O743        O  0.03583846  0.96934894  0.03280590    -0.73800
O744        O  0.97517752  0.94895936  0.46326833    -0.73800
O745        O  0.96803966  0.51487378  0.47170624    -0.73700
O746        O  0.02983411  0.53469190  0.04028792    -0.73700
O747        O  0.02699297  0.52793949  0.46866687    -0.73700
O748        O  0.97136492  0.51851609  0.04258687    -0.73800
Ni749      Ni  0.00611953  0.95441726  0.49844810     1.25400
Ni750      Ni  0.99833975  0.52489093  0.50558102     1.25400
C751        C  0.96278742  0.98104323  0.04652289     0.88500
C752        C  0.04095073  0.99450108  0.45119858     0.88400
C753        C  0.04040096  0.00319945  0.04389589     0.88500
C754        C  0.96138001  0.97765068  0.45129814     0.88600
O755        O  0.47986256  0.79554899  0.46035877    -0.73700
O756        O  0.53073243  0.78471683  0.03737376    -0.73700
O757        O  0.53899711  0.78556645  0.46948082    -0.73800
O758        O  0.47164904  0.79487537  0.02986824    -0.73800
O759        O  0.46535458  0.73345024  0.02305852    -0.73700
O760        O  0.53271472  0.72388047  0.46267300    -0.73700
O761        O  0.52437131  0.72276718  0.03136316    -0.73700
O762        O  0.47385893  0.73354365  0.45451597    -0.73800
Ni763      Ni  0.50495399  0.79493522  0.99891500     1.25400
Ni764      Ni  0.49819248  0.72874307  0.99224233     1.25400
C765        C  0.46811770  0.76705845  0.44478737     0.88500
C766        C  0.53693991  0.75111257  0.04628682     0.88400
C767        C  0.54715792  0.75390003  0.45619881     0.88500
C768        C  0.45724638  0.76484300  0.03669589     0.88600
C769        C  0.10615142  0.53674575  0.40538860    -0.04700
C770        C  0.10891029  0.00754718  0.37302066     0.09400
C771        C  0.09206477  0.97426112  0.37375705    -0.02100
C772        C  0.07026213  0.96961698  0.39945354    -0.00400
C773        C  0.06502405  0.99843491  0.42488378    -0.04000
C774        C  0.08380926  0.53360003  0.43086550     0.03000
C775        C  0.12934767  0.01360680  0.34298307     0.09900
C776        C  0.09701530  0.94483670  0.34754947     0.35800
C777        C  0.08169500  0.56205050  0.45847308     0.39200
C778        C  0.16104161  0.50560837  0.35378200    -0.04300
C779        C  0.18053354  0.50893480  0.32498546     0.02800
C780        C  0.16654668  0.01566175  0.28182857    -0.03900
C781        C  0.13472465  0.01761753  0.27966427    -0.00200
C782        C  0.11750297  0.02185266  0.31007565    -0.02700
C783        C  0.17201188  0.49457784  0.38800010     0.36500
C784        C  0.11774182  0.00744728  0.24864066     0.40100
C785        C  0.21167210  0.50667891  0.33344348     0.39300
C786        C  0.08657140  0.03227076  0.30731891     0.36200
C787        C  0.12530539  0.56940469  0.40563641     0.36900
C788        C  0.05328315  0.93503922  0.39906858     0.40100
N789        N  0.23590746  0.50486175  0.34294015    -0.37900
N790        N  0.18069817  0.48563966  0.41523070    -0.39500
N791        N  0.10308082  0.99746096  0.22532310    -0.37300
N792        N  0.06203974  0.04087341  0.30523348    -0.39700
N793        N  0.10094951  0.92144745  0.32662804    -0.39400
N794        N  0.04030791  0.90701727  0.39862585    -0.37100
N795        N  0.08008629  0.58470717  0.48054431    -0.38100
N796        N  0.14054154  0.59552193  0.40609627    -0.39800
C797        C  0.11586123  0.01259109  0.08755127    -0.04700
C798        C  0.10802000  0.02158422  0.12263750     0.09400
C799        C  0.08314556  0.53278346  0.13794421    -0.02100
C800        C  0.06169765  0.53110454  0.11100781    -0.00400
C801        C  0.06382214  0.01124414  0.07030191    -0.04000
C802        C  0.09376468  0.00592392  0.06186147     0.03000
C803        C  0.13102803  0.02179348  0.15150025     0.09900
C804        C  0.07397733  0.54345504  0.17311151     0.35800
C805        C  0.10188049  0.99531156  0.02629273     0.39200
C806        C  0.14194018  0.55589290  0.17984368    -0.04300
C807        C  0.15853164  0.55361790  0.21136915     0.02800
C808        C  0.16977065  0.01889671  0.21228558    -0.03900
C809        C  0.16854016  0.98902939  0.18609449    -0.00200
C810        C  0.14684001  0.98895981  0.15920718    -0.02700
C811        C  0.13006224  0.59176568  0.16882212     0.36500
C812        C  0.19034629  0.95960358  0.18262687     0.40100
C813        C  0.15614925  0.58575666  0.23512628     0.39300
C814        C  0.14086865  0.95454360  0.13919667     0.36200
C815        C  0.14668033  0.01079399  0.07777273     0.36900
C816        C  0.03245353  0.54622410  0.11725238     0.40100
N817        N  0.15275384  0.61223543  0.25269505    -0.37900
N818        N  0.12054436  0.62030825  0.16008537    -0.39500
N819        N  0.20718405  0.93571783  0.17770409    -0.37300
N820        N  0.13622297  0.92720012  0.12319437    -0.39700
N821        N  0.06600726  0.55244497  0.20079180    -0.39400
N822        N  0.00933244  0.55889133  0.12219400    -0.37100
N823        N  0.10835188  0.98704847  0.99787005    -0.38100
N824        N  0.17126860  0.00946292  0.06996100    -0.39800
C825        C  0.26243320  0.85095633  0.28104354    -0.04700
C826        C  0.25965478  0.87528927  0.25268240     0.09400
C827        C  0.27480885  0.86681829  0.22168541    -0.02100
C828        C  0.29414050  0.83562123  0.21944975    -0.00400
C829        C  0.29520962  0.80742080  0.24649671    -0.04000
C830        C  0.27870446  0.81696655  0.27782993     0.03000
C831        C  0.24188509  0.91112332  0.25560309     0.09900
C832        C  0.27169798  0.89193313  0.19210493     0.35800
C833        C  0.27626557  0.79175142  0.30709923     0.39200
C834        C  0.25613929  0.94612084  0.25739380    -0.04300
C835        C  0.23994467  0.98023358  0.25611443     0.02800
C836        C  0.20811438  0.98030515  0.25213841    -0.03900
C837        C  0.19430407  0.94375404  0.25513743    -0.00200
C838        C  0.21103643  0.91009512  0.25561990    -0.02700
C839        C  0.28803651  0.94676356  0.26185016     0.36500
C840        C  0.16259014  0.93871488  0.25514730     0.40100
C841        C  0.25719832  0.01384290  0.26332793     0.39300
C842        C  0.19623966  0.87379911  0.25452998     0.36200
C843        C  0.24807714  0.86098490  0.31388218     0.36900
C844        C  0.31512131  0.83825114  0.19124244     0.40100
N845        N  0.27611668  0.53833982  0.28046856    -0.37900
N846        N  0.31337384  0.94719334  0.26560003    -0.39500
N847        N  0.13777413  0.93117679  0.25524887    -0.37300
N848        N  0.18412729  0.84514897  0.25366994    -0.39700
N849        N  0.26971957  0.91177218  0.16846699    -0.39400
N850        N  0.33145357  0.84346142  0.16867806    -0.37100
N851        N  0.27231870  0.77389671  0.33172039    -0.38100
N852        N  0.23663858  0.86898274  0.34000918    -0.39800
C853        C  0.23003003  0.61737640  0.28111495    -0.04700
C854        C  0.24538276  0.62488758  0.25013594     0.09400
C855        C  0.24413029  0.59834561  0.22251078    -0.02100
C856        C  0.22963408  0.56339388  0.22660116    -0.00400
C857        C  0.21187957  0.55556530  0.25704340    -0.04000
C858        C  0.21162794  0.58518068  0.28367111     0.03000
C859        C  0.26239309  0.66131997  0.24635540     0.09900
C860        C  0.25791930  0.60719816  0.18932962     0.35800
C861        C  0.19069914  0.58717468  0.31213558     0.39200
C862        C  0.29321757  0.66117166  0.24375715    -0.04300
C863        C  0.30934252  0.69522932  0.24090322     0.02800
C864        C  0.29517707  0.73161354  0.24360619    -0.03900
C865        C  0.26321745  0.73041037  0.24289505    -0.00200
C866        C  0.24753504  0.69583523  0.24462621    -0.02700
C867        C  0.30871131  0.62549245  0.24589862     0.36500
C868        C  0.24499005  0.76297471  0.23628904     0.40100
C869        C  0.34098822  0.69100659  0.23789172     0.39300
C870        C  0.21545625  0.69547522  0.24349821     0.36200
C871        C  0.23223499  0.64411081  0.31035667     0.36900
C872        C  0.23507021  0.53531722  0.19937011     0.40100
N873        N  0.36578774  0.68396519  0.23540487    -0.37900
N874        N  0.32112797  0.59718812  0.24763342    -0.39500
N875        N  0.22936244  0.78769859  0.23004397    -0.37300
N876        N  0.18995129  0.69513723  0.24259394    -0.39700
N877        N  0.26883050  0.61432486  0.16289808    -0.39400
N878        N  0.24128986  0.51459040  0.17690020    -0.37100
N879        N  0.17419627  0.59146728  0.33488743    -0.38100
N880        N  0.23370010  0.66528999  0.33369978    -0.39800
C881        C  0.35845919  0.74648643  0.33365239    -0.04700
C882        C  0.37870762  0.77617525  0.33548266     0.09400
C883        C  0.37528761  0.80646947  0.31279797    -0.02100
C884        C  0.35339794  0.80560022  0.28602427    -0.00400
C885        C  0.33505039  0.77272940  0.27980178    -0.04000
C886        C  0.33625617  0.74507508  0.30730778     0.03000
C887        C  0.40304903  0.77602313  0.36243626     0.09900
C888        C  0.39605323  0.83762265  0.31540593     0.35800
C889        C  0.31381305  0.71680491  0.31272054     0.39200
C890        C  0.42705351  0.75089642  0.35887088    -0.04300
C891        C  0.44939147  0.75010456  0.38468645     0.02800
C892        C  0.44705692  0.77257096  0.41539815    -0.03900
C893        C  0.42328504  0.79802242  0.41890877    -0.00200
C894        C  0.40150626  0.79993171  0.39237245    -0.02700
C895        C  0.42830314  0.72424237  0.32972593     0.36500
C896        C  0.42033044  0.82099006  0.45052501     0.40100
C897        C  0.47520101  0.72661578  0.37930072     0.39300
C898        C  0.37676055  0.82538305  0.39655815     0.36200
C899        C  0.36019302  0.71745271  0.36006594     0.36900
C900        C  0.35283498  0.83795922  0.26342976     0.40100
N901        N  0.49593113  0.70822140  0.37500279    -0.37900
N902        N  0.42977208  0.70188085  0.30738792    -0.39500
N903        N  0.41786685  0.83932843  0.47571232    -0.37300
N904        N  0.35706071  0.84576128  0.39973267    -0.39700
N905        N  0.41264937  0.86231971  0.31738884    -0.39400
N906        N  0.35416868  0.86509869  0.24720720    -0.37100
N907        N  0.29649074  0.69409944  0.31925714    -0.38100
N908        N  0.36167501  0.69447193  0.38112384    -0.39800
C909        C  0.38182448  0.77374512  0.17755134    -0.04700
C910        C  0.36753616  0.76942350  0.14517214     0.09400
C911        C  0.33730024  0.76145881  0.14425428    -0.02100
C912        C  0.32072353  0.76051524  0.17575300    -0.00400
C913        C  0.33448049  0.76662428  0.20984386    -0.04000
C914        C  0.36637602  0.76888699  0.20917805     0.03000
C915        C  0.38577772  0.76845727  0.11251150     0.09900
C916        C  0.32295240  0.75629302  0.11029542     0.35800
C917        C  0.38539386  0.76046587  0.23851494     0.39200
C918        C  0.39636965  0.73368987  0.09984996    -0.04300
C919        C  0.41877230  0.73226860  0.07437083     0.02800
C920        C  0.43115785  0.76607714  0.06112144    -0.03900
C921        C  0.41871654  0.80098528  0.07240757    -0.00200
C922        C  0.39634025  0.80199206  0.09800945    -0.02700
C923        C  0.38515725  0.69915780  0.11464065     0.36500
C924        C  0.42891856  0.83644314  0.05859941     0.40100
C925        C  0.42939902  0.69548745  0.06330931     0.39300
C926        C  0.38509712  0.83792785  0.11049035     0.36200
C927        C  0.41345173  0.78123655  0.17814061     0.36900
C928        C  0.28916719  0.75624491  0.17120099     0.40100
N929        N  0.43766986  0.66600219  0.05469362    -0.37900
N930        N  0.37617516  0.67174902  0.12654181    -0.39500
N931        N  0.43689253  0.86502148  0.04808681    -0.37300
N932        N  0.37673432  0.86709336  0.11988017    -0.39700
N933        N  0.31155277  0.75235441  0.08321572    -0.39400
N934        N  0.26438483  0.75276405  0.16448955    -0.37100
N935        N  0.40247292  0.75315137  0.25995867    -0.38100
N936        N  0.43852892  0.78726131  0.17850479    -0.39800
C937        C  0.87618703  0.50483020  0.32456470    -0.04700
C938        C  0.87296231  0.97414813  0.33911021     0.09400
C939        C  0.84930861  0.94900405  0.33609729    -0.02100
C940        C  0.82977357  0.94998957  0.30685684    -0.00400
C941        C  0.83140061  0.97958213  0.28132986    -0.04000
C942        C  0.85660413  0.50804261  0.29572028     0.03000
C943        C  0.89408480  0.97237092  0.36958918     0.09900
C944        C  0.84539941  0.92137131  0.36341205     0.35800
C945        C  0.86025376  0.54151837  0.27502998     0.39200
C946        C  0.89139027  0.50403856  0.40779416    -0.04300
C947        C  0.91292263  0.50490950  0.43472941     0.02800
C948        C  0.93705012  0.97375054  0.42446211    -0.03900
C949        C  0.93699852  0.94444582  0.39868228    -0.00200
C950        C  0.91604184  0.94435871  0.37096245    -0.02700
C951        C  0.86872874  0.53277628  0.40687226     0.36500
C952        C  0.95869424  0.91464893  0.39985564     0.40100
C953        C  0.91103545  0.53415804  0.46169590     0.39300
C954        C  0.91752716  0.91601626  0.34318171     0.36200
C955        C  0.90139020  0.52997859  0.32817618     0.36900
C956        C  0.81083988  0.91757252  0.30341018     0.40100
N957        N  0.90935653  0.55740910  0.48321256    -0.37900
N958        N  0.85083512  0.55591331  0.40633712    -0.39500
N959        N  0.97557177  0.89032377  0.40071232    -0.37300
N960        N  0.91868722  0.89347085  0.32097479    -0.39700
N961        N  0.84226414  0.89947527  0.38518369    -0.39400
N962        N  0.79783341  0.88962345  0.30255957    -0.37100
N963        N  0.86470903  0.56945308  0.26087454    -0.38100
N964        N  0.92148450  0.54989448  0.33108587    -0.39800
C965        C  0.87620508  0.94935459  0.18442821    -0.04700
C966        C  0.87954315  0.97894150  0.16110927     0.09200
C967        C  0.86498166  0.51362489  0.17295855    -0.02100
C968        C  0.84297748  0.51548647  0.19920374    -0.00400
C969        C  0.83590379  0.98334329  0.21620599    -0.04000
C970        C  0.85677108  0.95257788  0.21316875     0.03000
C971        C  0.90104425  0.97607003  0.13138384     0.09900
C972        C  0.86995730  0.54531313  0.14997945     0.35800
C973        C  0.85768378  0.92163897  0.23751786     0.39200
C974        C  0.89075855  0.97512119  0.09625891    -0.04300
C975        C  0.91097360  0.97572187  0.06832375     0.02800
C976        C  0.94151947  0.97598448  0.07531373    -0.03900
C977        C  0.95593857  0.47969180  0.11935651    -0.00200
C978        C  0.93554817  0.48142449  0.14704542    -0.02700
C979        C  0.85935336  0.97367575  0.08888612     0.36500
C980        C  0.98690379  0.47377553  0.12696085     0.40100
C981        C  0.90035814  0.97362522  0.03239431     0.39300
C982        C  0.94606962  0.48583112  0.18291803     0.36200
C983        C  0.89198521  0.91439903  0.17773550     0.36900
C984        C  0.82779991  0.55119801  0.20115442     0.40100
N985        N  0.89157725  0.97102221  0.00388531    -0.37900
N986        N  0.83430677  0.97263106  0.08297231    -0.39500
N987        N  0.01138296  0.46758125  0.13329755    -0.37300
N988        N  0.95443127  0.48948359  0.21153695    -0.39700
N989        N  0.87405699  0.57047503  0.13178810    -0.39400
N990        N  0.81751900  0.58095399  0.20098666    -0.37100
N991        N  0.85986035  0.89580466  0.25539815    -0.38100
N992        N  0.90436624  0.88652834  0.17219652    -0.39800
C993        C  0.75613223  0.56135856  0.22498932    -0.04700
C994        C  0.75886799  0.58911097  0.25156751     0.09400
C995        C  0.77590848  0.58116666  0.28134778    -0.02100
C996        C  0.79108029  0.54650408  0.28420422    -0.00400
C997        C  0.79292153  0.52019419  0.25478717    -0.04000
C998        C  0.77243176  0.52730449  0.22652134     0.03000
C999        C  0.74145864  0.62536138  0.25000772     0.09900
C1000       C  0.77648306  0.60838491  0.31029947     0.35800
C1001       C  0.76841020  0.50106582  0.19734316     0.39200
C1002       C  0.71104465  0.62500729  0.25580227    -0.04300
C1003       C  0.69406957  0.65821441  0.25286091     0.02800
C1004       C  0.70750735  0.69470509  0.24779983    -0.03900
C1005       C  0.73939207  0.69437213  0.24548864    -0.00200
C1006       C  0.75547604  0.65999787  0.24461106    -0.02700
C1007       C  0.69704008  0.58970798  0.26497947     0.36500
C1008       C  0.75740022  0.72802295  0.24626603     0.40100
C1009       C  0.66247023  0.65239144  0.25278077     0.39300
C1010       C  0.78715036  0.66025120  0.23901678     0.36200
C1011       C  0.73725150  0.56854667  0.19490762     0.36900
C1012       C  0.80009841  0.53729169  0.31963616     0.40100
N1013       N  0.63787861  0.64372013  0.25263867    -0.37900
N1014       N  0.68601377  0.56162964  0.27245048    -0.39500
N1015       N  0.77328097  0.75354720  0.24730294    -0.37300
N1016       N  0.81236970  0.66070903  0.23469396    -0.39700
N1017       N  0.77691501  0.63011498  0.33325604    -0.39400
N1018       N  0.80618470  0.53086417  0.34846248    -0.37100
N1019       N  0.76352751  0.48155410  0.17338703    -0.38100
N1020       N  0.72226552  0.57377444  0.17079605    -0.39800
C1021       C  0.72971826  0.82653596  0.27438506    -0.04700
C1022       C  0.73884391  0.84096033  0.24210176     0.09400
C1023       C  0.73102445  0.82045655  0.21147766    -0.02100
C1024       C  0.71849172  0.78395748  0.21367454    -0.00400
C1025       C  0.70573355  0.77066474  0.24600702    -0.04000
C1026       C  0.70903924  0.79684540  0.27521699     0.03000
C1027       C  0.75510375  0.87826791  0.24028557     0.09900
C1028       C  0.73543125  0.83707884  0.17732571     0.35800
C1029       C  0.68796922  0.80134343  0.30319152     0.39200
C1030       C  0.78162576  0.88157939  0.22168623    -0.04300
C1031       C  0.79395539  0.91731194  0.21617821     0.02800
C1032       C  0.78887770  0.94770467  0.24078490    -0.03900
C1033       C  0.76155776  0.94411282  0.25988387    -0.00200
C1034       C  0.74368109  0.91130014  0.25611736    -0.02700
C1035       C  0.79658752  0.84856595  0.20785094     0.36500
C1036       C  0.75090132  0.97255301  0.28425743     0.40100
C1037       C  0.80519415  0.92286950  0.18115021     0.39300
C1038       C  0.71362902  0.91140270  0.26908077     0.36200
C1039       C  0.73930233  0.84399169  0.30731299     0.36900
C1040       C  0.72029547  0.76105823  0.18194128     0.40100
N1041       N  0.81341271  0.92635546  0.15269508    -0.37900
N1042       N  0.80872765  0.82227426  0.19703809    -0.39500
N1043       N  0.74647481  0.48983518  0.31510267    -0.37300
N1044       N  0.68966742  0.91144434  0.27931184    -0.39700
N1045       N  0.73890644  0.85037853  0.15016033    -0.39400
N1046       N  0.72305247  0.74511040  0.15543995    -0.37100
N1047       N  0.67192704  0.80808617  0.32588298    -0.38100
N1048       N  0.74609221  0.85727245  0.33411284    -0.39800
C1049       C  0.60181762  0.77671064  0.38354555    -0.04700
C1050       C  0.61580078  0.74150236  0.37840428     0.09400
C1051       C  0.60983160  0.71217321  0.40178093    -0.02100
C1052       C  0.58962137  0.71766333  0.42939786    -0.00400
C1053       C  0.57319370  0.75150576  0.43223412    -0.04000
C1054       C  0.58052415  0.78165588  0.41008178     0.03000
C1055       C  0.63357422  0.73411121  0.34576206     0.09900
C1056       C  0.62298445  0.67544172  0.39606601     0.35800
C1057       C  0.56543084  0.81749771  0.41322537     0.39200
C1058       C  0.66414533  0.72785388  0.34700484    -0.04300
C1059       C  0.68073386  0.72453075  0.31556426     0.02800
C1060       C  0.66704735  0.72889402  0.28148931    -0.03900
C1061       C  0.63503450  0.72820803  0.28172078    -0.00200
C1062       C  0.61907137  0.73239358  0.31327205    -0.02700
C1063       C  0.67892774  0.72751129  0.38091427     0.36500
C1064       C  0.61673536  0.71873521  0.25157456     0.40100
C1065       C  0.71244124  0.72078574  0.31957824     0.39300
C1066       C  0.58691580  0.73364269  0.31257515     0.36200
C1067       C  0.60766025  0.80732609  0.35988887     0.36900
C1068       C  0.58634726  0.68857391  0.45532679     0.40100
N1069       N  0.73757819  0.71804602  0.32423784    -0.37900
N1070       N  0.69066315  0.72716510  0.40796904    -0.39500
N1071       N  0.60051689  0.71051968  0.22916564    -0.37300
N1072       N  0.56141699  0.73462789  0.31207303    -0.39700
N1073       N  0.63333279  0.64608544  0.39137278    -0.39400
N1074       N  0.58397476  0.66555980  0.47622315    -0.37100
N1075       N  0.55357991  0.84620255  0.41568462    -0.38100
N1076       N  0.61151621  0.83202268  0.34108467    -0.39800
C1077       C  0.60954244  0.75955768  0.09590084    -0.04700
C1078       C  0.60462665  0.73568062  0.12439117     0.09400
C1079       C  0.57829074  0.71457373  0.12592365    -0.02100
C1080       C  0.55590530  0.71974700  0.10061486    -0.00400
C1081       C  0.56022959  0.74511766  0.07301223    -0.04000
C1082       C  0.58751161  0.76416690  0.07019210     0.03000
C1083       C  0.62654817  0.73487183  0.15382388     0.09900
C1084       C  0.57424752  0.68721898  0.15322618     0.35800
C1085       C  0.59334640  0.78783159  0.04035781     0.39200
C1086       C  0.62802103  0.76510960  0.17784602    -0.04300
C1087       C  0.64836025  0.76487462  0.20606443     0.02800
C1088       C  0.66724373  0.73288747  0.21201157    -0.03900
C1089       C  0.66783071  0.70491633  0.18390948    -0.00200
C1090       C  0.64694455  0.70557064  0.15616697    -0.02700
C1091       C  0.60721006  0.79592813  0.17440739     0.36500
C1092       C  0.69168944  0.67828967  0.17898705     0.40100
C1093       C  0.64736036  0.79699506  0.23006600     0.39300
C1094       C  0.64727203  0.67681140  0.12854531     0.36200
C1095       C  0.63745070  0.77926206  0.09310338     0.36900
C1096       C  0.52801398  0.70012178  0.10387723     0.40100
N1097       N  0.64537749  0.82357478  0.24782592    -0.37900
N1098       N  0.59052429  0.82028588  0.17162533    -0.39500
N1099       N  0.71068684  0.65743735  0.17324761    -0.37300
N1100       N  0.64766400  0.65408525  0.10645182    -0.39700
N1101       N  0.57077086  0.66471715  0.17437283    -0.39400
N1102       N  0.50572857  0.68458953  0.10658108    -0.37100
N1103       N  0.59806106  0.80665584  0.01657257    -0.38100
N1104       N  0.65975408  0.79486891  0.09100691    -0.39800
C1105       C  0.68730063  0.73030014  0.74965846    -0.01700
C1106       C  0.81066857  0.98119667  0.74559596    -0.01700
C1107       C  0.31399192  0.76679557  0.74394058    -0.01700
C1108       C  0.18807641  0.01567268  0.74982522    -0.01700
O1109       O  0.97731646  0.95052770  0.53464810    -0.73700
O1110       O  0.03349707  0.96591221  0.96221586    -0.73700
O1111       O  0.03620605  0.96532737  0.53330712    -0.73800
O1112       O  0.97433409  0.95095003  0.96369928    -0.73800
O1113       O  0.96998079  0.51595043  0.97156959    -0.73700
O1114       O  0.02921484  0.53135419  0.53949076    -0.73700
O1115       O  0.02856298  0.53040493  0.96936035    -0.73700
O1116       O  0.97054432  0.51682256  0.54271508    -0.73800
Ni1117     Ni  0.00556081  0.95747658  0.99842704     1.25400
Ni1118     Ni  0.99956393  0.52703387  0.00589396     1.25400
C1119       C  0.96315309  0.97927721  0.54587215     0.88500
C1120       C  0.03889655  0.99865122  0.95046618     0.88400
C1121       C  0.04126532  0.99905334  0.54443214     0.88500
C1122       C  0.95987239  0.97916227  0.95182716     0.88600
O1123       O  0.47883783  0.80105302  0.95961813    -0.73700
O1124       O  0.53079126  0.78012818  0.53898415    -0.73700
O1125       O  0.53798329  0.79005899  0.96786915    -0.73800
O1126       O  0.47166417  0.78911400  0.52998357    -0.73800
O1127       O  0.46657729  0.72744122  0.52421260    -0.73700
O1128       O  0.53142277  0.72823516  0.96185749    -0.73700
O1129       O  0.52575061  0.71803505  0.53250218    -0.73700
O1130       O  0.47278829  0.73909848  0.95341898    -0.73800
Ni1131     Ni  0.50550737  0.78980532  0.49997156     1.25400
Ni1132     Ni  0.49950808  0.72353880  0.49329079     1.25400
C1133       C  0.46717839  0.77265178  0.94374156     0.88500
C1134       C  0.53746402  0.74669211  0.54792436     0.88400
C1135       C  0.54601235  0.75805490  0.95521852     0.88500
C1136       C  0.45751165  0.75890118  0.53681714     0.88600
C1137       C  0.10438261  0.54149956  0.90146783    -0.04700
C1138       C  0.10754773  0.01108909  0.87301163     0.09400
C1139       C  0.09096982  0.97764320  0.87421163    -0.02100
C1140       C  0.06828897  0.97382135  0.89890609    -0.00400
C1141       C  0.06254146  0.00310562  0.92369621    -0.04000
C1142       C  0.08331898  0.53790283  0.92837760     0.03000
C1143       C  0.12861381  0.01617906  0.84347094     0.09900
C1144       C  0.09715562  0.94713645  0.84952284     0.35800
C1145       C  0.08092657  0.56750370  0.95487327     0.39200
C1146       C  0.16038827  0.50855292  0.85218156    -0.04300
C1147       C  0.17992634  0.50974307  0.82331467     0.02800
C1148       C  0.16628134  0.01467346  0.78276449    -0.03900
C1149       C  0.13457783  0.01812419  0.78022008    -0.00200
C1150       C  0.11739008  0.02454197  0.81031166    -0.02700
C1151       C  0.17138637  0.50092681  0.88725569     0.36500
C1152       C  0.11743378  0.00716923  0.74954725     0.40100
C1153       C  0.21104412  0.50845116  0.83207843     0.39300
C1154       C  0.08704074  0.03724415  0.80698531     0.36200
C1155       C  0.12079278  0.57624215  0.89819410     0.36900
C1156       C  0.05058327  0.93983781  0.89775386     0.40100
N1157       N  0.23521448  0.50777651  0.84195987    -0.37900
N1158       N  0.18009849  0.49484279  0.91519818    -0.39500
N1159       N  0.10250027  0.99685367  0.72659797    -0.37300
N1160       N  0.06301752  0.04780877  0.80447356    -0.39700
N1161       N  0.10216944  0.92280492  0.82992891    -0.39400
N1162       N  0.03685120  0.91242160  0.89650494    -0.37100
N1163       N  0.07925011  0.59099743  0.97616105    -0.38100
N1164       N  0.13361177  0.60420420  0.89574577    -0.39800
C1165       C  0.11630355  0.00611678  0.58927257    -0.04700
C1166       C  0.10831015  0.01746093  0.62373253     0.09400
C1167       C  0.08448628  0.53022600  0.63512470    -0.02100
C1168       C  0.06262963  0.52863286  0.60862196    -0.00400
C1169       C  0.06452560  0.00658700  0.57110249    -0.04000
C1170       C  0.09434035  0.99895280  0.56357299     0.03000
C1171       C  0.13097901  0.01811597  0.65287471     0.09900
C1172       C  0.07636773  0.54392788  0.66981070     0.35800
C1173       C  0.10254857  0.98538204  0.52887560     0.39200
C1174       C  0.14401585  0.55168995  0.67526346    -0.04300
C1175       C  0.15957192  0.55017582  0.70756060     0.02800
C1176       C  0.16989007  0.01655175  0.71342267    -0.03900
C1177       C  0.16807078  0.98583701  0.68822706    -0.00200
C1178       C  0.14597867  0.98510211  0.66191124    -0.02700
C1179       C  0.13423894  0.58758793  0.66178190     0.36500
C1180       C  0.18989468  0.95647837  0.68471116     0.40100
C1181       C  0.15683644  0.58322516  0.73007547     0.39300
C1182       C  0.13877710  0.94981689  0.64394430     0.36200
C1183       C  0.14717494  0.00244440  0.58014310     0.36900
C1184       C  0.03409907  0.54587098  0.61483273     0.40100
N1185       N  0.15303952  0.61054209  0.74633475    -0.37900
N1186       N  0.12650796  0.61617854  0.65101852    -0.39500
N1187       N  0.20671777  0.93260301  0.67973400    -0.37300
N1188       N  0.13309834  0.92173916  0.62964498    -0.39700
N1189       N  0.06941967  0.55539412  0.69712975    -0.39400
N1190       N  0.01153962  0.56009904  0.61977058    -0.37100
N1191       N  0.10910804  0.97465279  0.50117211    -0.38100
N1192       N  0.17182345  0.99968425  0.57292069    -0.39800
C1193       C  0.26267834  0.84890352  0.78038357    -0.04700
C1194       C  0.25945447  0.87312993  0.75202672     0.09400
C1195       C  0.27369824  0.86403211  0.72048163    -0.02100
C1196       C  0.29248302  0.83222952  0.71764086    -0.00400
C1197       C  0.29403474  0.80441073  0.74498338    -0.04000
C1198       C  0.27788184  0.81423825  0.77652592     0.03000
C1199       C  0.24183837  0.90913451  0.75547335     0.09900
C1200       C  0.27023169  0.88902497  0.69089105     0.35800
C1201       C  0.27415241  0.78834243  0.80507765     0.39200
C1202       C  0.25616697  0.94411755  0.75629891    -0.04300
C1203       C  0.23994547  0.97825175  0.75669222     0.02800
C1204       C  0.20805407  0.97841457  0.75370095    -0.03900
C1205       C  0.19426715  0.94198014  0.75741992    -0.00200
C1206       C  0.21099474  0.90826428  0.75770916    -0.02700
C1207       C  0.28822659  0.94476760  0.75796796     0.36500
C1208       C  0.16252616  0.93724442  0.75812023     0.40100
C1209       C  0.25731417  0.01163883  0.76453351     0.39300
C1210       C  0.19615418  0.87205014  0.75870871     0.36200
C1211       C  0.25010212  0.85985751  0.81402986     0.36900
C1212       C  0.31194410  0.83318995  0.68779688     0.40100
N1213       N  0.27598264  0.53571821  0.77919501    -0.37900
N1214       N  0.31371906  0.94519622  0.75931201    -0.39500
N1215       N  0.13758900  0.93043889  0.75863041    -0.37300
N1216       N  0.18416194  0.84336145  0.75969838    -0.39700
N1217       N  0.26806262  0.90870331  0.66715737    -0.39400
N1218       N  0.32692674  0.83709136  0.66368595    -0.37100
N1219       N  0.26883961  0.76982746  0.82888787    -0.38100
N1220       N  0.24021169  0.86864787  0.84084986    -0.39800
C1221       C  0.22944655  0.61493747  0.77911207    -0.04700
C1222       C  0.24558201  0.62174821  0.74863566     0.09400
C1223       C  0.24493718  0.59487242  0.72127960    -0.02100
C1224       C  0.23006056  0.56017051  0.72523127    -0.00400
C1225       C  0.21160588  0.55300935  0.75520386    -0.04000
C1226       C  0.21055548  0.58329317  0.78118051     0.03000
C1227       C  0.26241144  0.65815527  0.74500718     0.09900
C1228       C  0.25965857  0.60319567  0.68856314     0.35800
C1229       C  0.18794073  0.58716179  0.80762420     0.39200
C1230       C  0.29325826  0.65834815  0.74458904    -0.04300
C1231       C  0.30919435  0.69249552  0.74194844     0.02800
C1232       C  0.29466137  0.72872108  0.74344127    -0.03900
C1233       C  0.26270712  0.72715414  0.74148427    -0.00200
C1234       C  0.24731805  0.69234348  0.74199601    -0.02700
C1235       C  0.30887204  0.62298856  0.74878125     0.36500
C1236       C  0.24425127  0.75961582  0.73506647     0.40100
C1237       C  0.34095351  0.68852022  0.74061414     0.39300
C1238       C  0.21536106  0.69133111  0.73825356     0.36200
C1239       C  0.23111773  0.64209617  0.80809069     0.36900
C1240       C  0.23559093  0.53171730  0.69836132     0.40100
N1241       N  0.36584167  0.68152791  0.73965330    -0.37900
N1242       N  0.32144855  0.59501897  0.75230670    -0.39500
N1243       N  0.22844145  0.78424871  0.72909572    -0.37300
N1244       N  0.18997491  0.69045741  0.73511520    -0.39700
N1245       N  0.27125846  0.60999917  0.66247378    -0.39400
N1246       N  0.24172716  0.51048768  0.67626768    -0.37100
N1247       N  0.17005697  0.59292409  0.82854999    -0.38100
N1248       N  0.23222817  0.66366267  0.83115000    -0.39800
C1249       C  0.35739339  0.74830455  0.83393597    -0.04700
C1250       C  0.37734530  0.77836554  0.83471311     0.09400
C1251       C  0.37371076  0.80754003  0.81082329    -0.02100
C1252       C  0.35210062  0.80495908  0.78380063    -0.00400
C1253       C  0.33410955  0.77154674  0.77879051    -0.04000
C1254       C  0.33545324  0.74516036  0.80736071     0.03000
C1255       C  0.40197379  0.77943888  0.86132622     0.09900
C1256       C  0.39422473  0.83902102  0.81220477     0.35800
C1257       C  0.31369837  0.71611288  0.81318568     0.39200
C1258       C  0.42601580  0.75428218  0.85831326    -0.04300
C1259       C  0.44861516  0.75462258  0.88382786     0.02800
C1260       C  0.44642753  0.77805621  0.91395105    -0.03900
C1261       C  0.42281487  0.80383844  0.91666605    -0.00200
C1262       C  0.40080363  0.80469358  0.89031518    -0.02700
C1263       C  0.42701987  0.72633512  0.83021680     0.36500
C1264       C  0.42026634  0.82839055  0.94724027     0.40100
C1265       C  0.47453053  0.73124207  0.87871124     0.39300
C1266       C  0.37617168  0.83043095  0.89383412     0.36200
C1267       C  0.35930821  0.72056885  0.86151890     0.36900
C1268       C  0.35191314  0.83564798  0.75923146     0.40100
N1269       N  0.49532908  0.71294015  0.87453866    -0.37900
N1270       N  0.42834053  0.70294704  0.80879499    -0.39500
N1271       N  0.41802639  0.84817585  0.97148115    -0.37300
N1272       N  0.35658324  0.85105937  0.89651241    -0.39700
N1273       N  0.41063754  0.86395991  0.81317744    -0.39400
N1274       N  0.35355515  0.86135090  0.74114434    -0.37100
N1275       N  0.29693278  0.69281753  0.81998333    -0.38100
N1276       N  0.36095130  0.69861067  0.88349366    -0.39800
C1277       C  0.38167061  0.76407363  0.67662363    -0.04700
C1278       C  0.36720174  0.76055803  0.64430460     0.09400
C1279       C  0.33667647  0.75486604  0.64349259    -0.02100
C1280       C  0.32008614  0.75535769  0.67501760    -0.00400
C1281       C  0.33381647  0.76268998  0.70896557    -0.04000
C1282       C  0.36583309  0.76325878  0.70840334     0.03000
C1283       C  0.38517413  0.76115422  0.61139272     0.09900
C1284       C  0.32206654  0.75068150  0.60957286     0.35800
C1285       C  0.38461391  0.75810241  0.73863925     0.39200
C1286       C  0.39283792  0.72721171  0.59430588    -0.04300
C1287       C  0.41496951  0.72662793  0.56840037     0.02800
C1288       C  0.43063574  0.76015019  0.56009498    -0.03900
C1289       C  0.42066643  0.79472694  0.57528040    -0.00200
C1290       C  0.39825287  0.79500756  0.60077610    -0.02700
C1291       C  0.37885140  0.69242511  0.60471523     0.36500
C1292       C  0.43332587  0.83051911  0.56552047     0.40100
C1293       C  0.42119676  0.69104100  0.55078684     0.39300
C1294       C  0.38983093  0.83022789  0.61769799     0.36200
C1295       C  0.41379751  0.76698597  0.67698949     0.36900
C1296       C  0.28849839  0.75137639  0.67043443     0.40100
N1297       N  0.42585017  0.66253801  0.53680979    -0.37900
N1298       N  0.36763699  0.66475579  0.61302354    -0.39500
N1299       N  0.44317958  0.85927672  0.55796214    -0.37300
N1300       N  0.38368766  0.85855345  0.63109433    -0.39700
N1301       N  0.31046253  0.74749341  0.58254141    -0.39400
N1302       N  0.26373987  0.74793617  0.66356547    -0.37100
N1303       N  0.40177517  0.75335818  0.76065029    -0.38100
N1304       N  0.43925031  0.76925760  0.67720637    -0.39800
C1305       C  0.87825251  0.50337187  0.82476461    -0.04700
C1306       C  0.87262612  0.97384757  0.83807483     0.09400
C1307       C  0.84917828  0.94833110  0.83507098    -0.02100
C1308       C  0.82965555  0.94887585  0.80576973    -0.00400
C1309       C  0.83116849  0.97819265  0.77999087    -0.04000
C1310       C  0.85793380  0.50703618  0.79674616     0.03000
C1311       C  0.89355789  0.97273031  0.86887143     0.09900
C1312       C  0.84544286  0.92079849  0.86249447     0.35800
C1313       C  0.86100671  0.54088049  0.77641661     0.39200
C1314       C  0.89393281  0.50283468  0.90734896    -0.04300
C1315       C  0.91543835  0.50449384  0.93422173     0.02800
C1316       C  0.93562559  0.97452779  0.92486720    -0.03900
C1317       C  0.93591184  0.94495618  0.89934042    -0.00200
C1318       C  0.91547723  0.94472037  0.87103998    -0.02700
C1319       C  0.87083847  0.53100688  0.90629518     0.36500
C1320       C  0.95715967  0.91472863  0.90162579     0.40100
C1321       C  0.91315711  0.53411382  0.96079933     0.39300
C1322       C  0.91748423  0.91622110  0.84345412     0.36200
C1323       C  0.90342968  0.52863996  0.82787946     0.36900
C1324       C  0.81068925  0.91645995  0.80255559     0.40100
N1325       N  0.91116560  0.55771468  0.98193779    -0.37900
N1326       N  0.85264965  0.55376001  0.90573313    -0.39500
N1327       N  0.97358214  0.88996935  0.90343263    -0.37300
N1328       N  0.91904883  0.89359337  0.82136045    -0.39700
N1329       N  0.84250155  0.89895784  0.88435304    -0.39400
N1330       N  0.79759365  0.88857693  0.80167719    -0.37100
N1331       N  0.86492806  0.56910786  0.76253640    -0.38100
N1332       N  0.92347600  0.54868487  0.83039837    -0.39800
C1333       C  0.87515040  0.94705695  0.68299302    -0.04700
C1334       C  0.87825751  0.97625102  0.65917635     0.09200
C1335       C  0.86580048  0.51296462  0.67488218    -0.02100
C1336       C  0.84363706  0.51467426  0.70091265    -0.00400
C1337       C  0.83490278  0.98143289  0.71474425    -0.04000
C1338       C  0.85562011  0.95046989  0.71167407     0.03000
C1339       C  0.90018774  0.97343554  0.62977341     0.09900
C1340       C  0.87097516  0.54480636  0.65212476     0.35800
C1341       C  0.85626701  0.91948206  0.73598218     0.39200
C1342       C  0.89042731  0.97186145  0.59443056    -0.04300
C1343       C  0.91100433  0.97330663  0.56684514     0.02800
C1344       C  0.94146631  0.97466226  0.57438625    -0.03900
C1345       C  0.95589506  0.47879221  0.61965572    -0.00200
C1346       C  0.93595199  0.48043398  0.64781185    -0.02700
C1347       C  0.85920114  0.96864537  0.58646844     0.36500
C1348       C  0.98706310  0.47369647  0.62658918     0.40100
C1349       C  0.90088264  0.97125886  0.53070976     0.39300
C1350       C  0.94702890  0.48470472  0.68346579     0.36200
C1351       C  0.89148123  0.91236393  0.67705905     0.36900
C1352       C  0.82831598  0.55030401  0.70258933     0.40100
N1353       N  0.89252313  0.96886046  0.50200961    -0.37900
N1354       N  0.83430953  0.96603345  0.58001524    -0.39500
N1355       N  0.01172852  0.46819823  0.63243572    -0.37300
N1356       N  0.95586993  0.48821653  0.71189702    -0.39700
N1357       N  0.87521428  0.57007317  0.63410383    -0.39400
N1358       N  0.81792758  0.57999153  0.70208725    -0.37100
N1359       N  0.85822650  0.89353803  0.75375899    -0.38100
N1360       N  0.90435329  0.88470893  0.67226489    -0.39800
C1361       C  0.75689026  0.56074220  0.72747059    -0.04700
C1362       C  0.76029560  0.58879738  0.75368492     0.09400
C1363       C  0.77802513  0.58116087  0.78298502    -0.02100
C1364       C  0.79271304  0.54620908  0.78596873    -0.00400
C1365       C  0.79398395  0.51966350  0.75674377    -0.04000
C1366       C  0.77324705  0.52673840  0.72874787     0.03000
C1367       C  0.74262874  0.62482422  0.75252952     0.09900
C1368       C  0.77987995  0.60899675  0.81134303     0.35800
C1369       C  0.76925131  0.50062181  0.69945310     0.39200
C1370       C  0.71240176  0.62411122  0.75947793    -0.04300
C1371       C  0.69501410  0.65691862  0.75635882     0.02800
C1372       C  0.70800793  0.69356952  0.75081008    -0.03900
C1373       C  0.73988010  0.69375155  0.74834673    -0.00200
C1374       C  0.75618835  0.65961611  0.74647612    -0.02700
C1375       C  0.69901247  0.58885669  0.76992975     0.36500
C1376       C  0.75764801  0.72759226  0.75069470     0.40100
C1377       C  0.66350741  0.65040369  0.75655434     0.39300
C1378       C  0.78758009  0.66032379  0.73913099     0.36200
C1379       C  0.73727747  0.56753995  0.69797691     0.36900
C1380       C  0.80172717  0.53691198  0.82137255     0.40100
N1381       N  0.63906086  0.64108822  0.75660572    -0.37900
N1382       N  0.68848612  0.56084451  0.77848017    -0.39500
N1383       N  0.77315990  0.75340915  0.75314578    -0.37300
N1384       N  0.81255911  0.66116333  0.73324436    -0.39700
N1385       N  0.78142869  0.63126435  0.83378881    -0.39400
N1386       N  0.80782394  0.53023700  0.85013743    -0.37100
N1387       N  0.76459222  0.48118531  0.67538330    -0.38100
N1388       N  0.72170042  0.57234053  0.67431359    -0.39800
C1389       C  0.72884408  0.82642558  0.77516998    -0.04700
C1390       C  0.73752014  0.84017287  0.74240143     0.09400
C1391       C  0.72971350  0.81861569  0.71239523    -0.02100
C1392       C  0.71835277  0.78169824  0.71577022    -0.00400
C1393       C  0.70562430  0.76926398  0.74834144    -0.04000
C1394       C  0.70861698  0.79629165  0.77692787     0.03000
C1395       C  0.75362121  0.87750652  0.73957635     0.09900
C1396       C  0.73261114  0.83454915  0.67773911     0.35800
C1397       C  0.68788293  0.80073645  0.80528562     0.39200
C1398       C  0.77976185  0.88074745  0.72018107    -0.04300
C1399       C  0.79232993  0.91640322  0.71488706     0.02800
C1400       C  0.78797730  0.94646341  0.74008929    -0.03900
C1401       C  0.76090095  0.94300258  0.75967553    -0.00200
C1402       C  0.74263396  0.91058548  0.75574229    -0.02700
C1403       C  0.79406221  0.84780935  0.70519640     0.36500
C1404       C  0.75094528  0.97103017  0.78487336     0.40100
C1405       C  0.80331370  0.92229768  0.67978263     0.39300
C1406       C  0.71258717  0.91117836  0.76872827     0.36200
C1407       C  0.73850760  0.84481768  0.80762718     0.36900
C1408       C  0.72167954  0.75726858  0.68524279     0.40100
N1409       N  0.81132665  0.92613032  0.65128758    -0.37900
N1410       N  0.80560853  0.82159778  0.69330447    -0.39500
N1411       N  0.74734398  0.49083670  0.81717610    -0.37300
N1412       N  0.68861209  0.91162703  0.77891259    -0.39700
N1413       N  0.73473259  0.84726366  0.65012019    -0.39400
N1414       N  0.72593187  0.73982400  0.65987289    -0.37100
N1415       N  0.67208427  0.80759003  0.82820389    -0.38100
N1416       N  0.74535533  0.85884974  0.83407982    -0.39800
C1417       C  0.60056669  0.77701592  0.88201525    -0.04700
C1418       C  0.61611865  0.74250785  0.88043645     0.09400
C1419       C  0.61102489  0.71538987  0.90630452    -0.02100
C1420       C  0.59028903  0.72245712  0.93301366    -0.00400
C1421       C  0.57228176  0.75496550  0.93206799    -0.04000
C1422       C  0.57825806  0.78282070  0.90709210     0.03000
C1423       C  0.63399233  0.73291499  0.84844800     0.09900
C1424       C  0.62541640  0.67904742  0.90401549     0.35800
C1425       C  0.56024949  0.81645250  0.90540712     0.39200
C1426       C  0.66469217  0.72799496  0.84986241    -0.04300
C1427       C  0.68124104  0.72404520  0.81847521     0.02800
C1428       C  0.66740170  0.72741951  0.78438671    -0.03900
C1429       C  0.63541709  0.72533563  0.78462761    -0.00200
C1430       C  0.61943754  0.72875297  0.81617174    -0.02700
C1431       C  0.67959285  0.72977583  0.88369986     0.36500
C1432       C  0.61722323  0.71554811  0.75446798     0.40100
C1433       C  0.71298224  0.72087279  0.82249491     0.39300
C1434       C  0.58726932  0.72704905  0.81576009     0.36200
C1435       C  0.60570691  0.80551951  0.85594737     0.36900
C1436       C  0.58786496  0.69641935  0.96176125     0.40100
N1437       N  0.73812465  0.71856713  0.82733386    -0.37900
N1438       N  0.69144608  0.73106245  0.91068545    -0.39500
N1439       N  0.60103790  0.70704078  0.73212123    -0.37300
N1440       N  0.56177661  0.72566293  0.81550933    -0.39700
N1441       N  0.63672860  0.64995864  0.90205098    -0.39400
N1442       N  0.58618991  0.67593870  0.98493623    -0.37100
N1443       N  0.54585567  0.84321623  0.90391847    -0.38100
N1444       N  0.60910462  0.82839110  0.83512421    -0.39800
C1445       C  0.60887491  0.75710429  0.59963510    -0.04700
C1446       C  0.60378151  0.73318792  0.62806938     0.09400
C1447       C  0.57752193  0.71184549  0.62919440    -0.02100
C1448       C  0.55555183  0.71645475  0.60324927    -0.00400
C1449       C  0.56024982  0.74139539  0.57539880    -0.04000
C1450       C  0.58729679  0.76107712  0.57329581     0.03000
C1451       C  0.62561323  0.73237096  0.65762812     0.09900
C1452       C  0.57310720  0.68485656  0.65673047     0.35800
C1453       C  0.59332623  0.78486863  0.54360772     0.39200
C1454       C  0.62738450  0.76290442  0.68130152    -0.04300
C1455       C  0.64805954  0.76300504  0.70919181     0.02800
C1456       C  0.66716685  0.73118043  0.71505029    -0.03900
C1457       C  0.66728394  0.70279760  0.68735638    -0.00200
C1458       C  0.64585049  0.70289169  0.66019661    -0.02700
C1459       C  0.60643494  0.79359682  0.67798591     0.36500
C1460       C  0.69094297  0.67594193  0.68240138     0.40100
C1461       C  0.64713174  0.79532108  0.73296078     0.39300
C1462       C  0.64518910  0.67301023  0.63364251     0.36200
C1463       C  0.63649331  0.77759819  0.59756641     0.36900
C1464       C  0.52761257  0.69686473  0.60617092     0.40100
N1465       N  0.64510517  0.82213335  0.75040043    -0.37900
N1466       N  0.58963593  0.81785366  0.67536230    -0.39500
N1467       N  0.70977893  0.65486900  0.67662279    -0.37300
N1468       N  0.64466096  0.64924755  0.61251950    -0.39700
N1469       N  0.56931518  0.66263085  0.67805622    -0.39400
N1470       N  0.50525737  0.68144832  0.60865641    -0.37100
N1471       N  0.59816252  0.80382714  0.51995038    -0.38100
N1472       N  0.65853025  0.79390707  0.59611840    -0.39800
loop_ 
_geom_bond_atom_site_label_1 
_geom_bond_atom_site_label_2 
_geom_bond_distance 
_geom_bond_site_symmetry_2 
_ccdc_geom_bond_type 
C1          C268   1.615       .  S
C1          C289   1.616       .  S
C1          C324   1.606       .  S
C1          C352   1.602       .  S
C2          C205   1.608       .  S
C2          C233   1.612       .  S
C2          C296   1.615       .  S
C2          C997   1.613       .  S
C3           C93   1.615       .  S
C3          C128   1.615       .  S
C3          C149   1.614       .  S
C3          C177   1.612       .  S
C4           C44   1.612       .  S
C4           C72   1.611       .  S
C4          C100   1.612       .  S
C4          C857   1.612       .  S
O5           C15   1.277       .  A
O5         Ni381   1.911   1_655  S
O6           C16   1.280       .  A
O6          Ni13   1.911       .  S
O7           C17   1.285       .  A
O7         Ni381   1.931       .  S
O8           C18   1.286       .  A
O8          Ni13   1.940   1_655  S
O9          C754   1.277   1_545  A
O9          Ni14   1.899       .  S
O10         C753   1.277       .  A
O10        Ni382   1.906   1_454  S
O11         C752   1.284   1_545  A
O11         Ni14   1.925   1_455  S
O12         C751   1.284   1_545  A
O12        Ni382   1.927   1_554  S
Ni13        O373   1.912   1_455  S
Ni13        O375   1.932       .  S
Ni13       Ni750   2.385   1_455  S
Ni14        O378   1.902   1_655  S
Ni14        O380   1.930       .  S
Ni14       Ni749   2.385   1_645  S
C15         O748   1.284       .  A
C15         C240   1.479       .  S
C16         O747   1.284       .  A
C16          C37   1.497       .  S
C17         O746   1.277       .  A
C17          C65   1.483       .  S
C18         O745   1.279       .  A
C18         C212   1.508       .  S
O19          C29   1.281       .  A
O19        Ni395   1.915       .  S
O20          C30   1.280       .  A
O20         Ni27   1.917   1_554  S
O21          C31   1.284       .  A
O21        Ni395   1.925       .  S
O22          C32   1.283       .  A
O22         Ni27   1.922   1_554  S
O23          C32   1.279       .  A
O23         Ni28   1.903       .  S
O24          C31   1.278       .  A
O24        Ni396   1.904       .  S
O25          C30   1.279       .  A
O25         Ni28   1.908       .  S
O26          C29   1.281       .  A
O26        Ni396   1.918       .  S
Ni27        O387   1.909       .  S
Ni27        O389   1.921       .  S
Ni27        Ni28   2.383   1_556  S
Ni28        O392   1.906   1_554  S
Ni28        O394   1.917   1_554  S
C29         C156   1.489       .  S
C30         C345   1.473       .  S
C31         C317   1.508       .  S
C32         C184   1.502       .  S
C33          C38   1.413       .  A
C33         C770   1.408       .  A
C33          C51   1.450       .  S
C34          C39   1.502       .  S
C34          C35   1.411       .  A
C34         C769   1.410       .  A
C35          C36   1.410       .  A
C35          C40   1.452       .  S
C36          C37   1.419       .  A
C36          C52   1.451       .  S
C37         C774   1.419       .  A
C38         C773   1.420   1_545  A
C38          C41   1.451       .  S
C39          C46   1.398       .  A
C39         C778   1.401       .  A
C40          N57   1.157       .  T
C41          N59   1.157       .  T
C42          C43   1.418       .  A
C42         C775   1.399       .  A
C42          C47   1.454   1_545  S
C43         C780   1.450       .  A
C43          C49   1.449       .  S
C44          C45   1.449       .  A
C44         C779   1.450       .  A
C45          C46   1.410       .  A
C45          C48   1.447       .  S
C46          C50   1.456       .  S
C47          N54   1.157       .  T
C48          N55   1.157       .  T
C49          N53   1.157       .  T
C50          N56   1.157       .  T
C51          N60   1.157       .  T
C52          N58   1.157       .  T
C61          C62   1.418       .  A
C61          C66   1.413       .  A
C61          C79   1.451       .  S
C62          C67   1.512       .  S
C62         C799   1.420       .  A
C63          C64   1.410       .  A
C63         C798   1.419       .  A
C63          C68   1.450       .  S
C64         C801   1.410       .  A
C64          C80   1.452       .  S
C65          C66   1.410       .  A
C65         C800   1.410       .  A
C66          C69   1.451       .  S
C67          C74   1.407       .  A
C67         C806   1.404       .  A
C68          N85   1.157       .  T
C69          N87   1.157       .  T
C70          C71   1.417       .  A
C70         C803   1.403       .  A
C70          C75   1.454       .  S
C71         C808   1.450       .  A
C71          C77   1.450       .  S
C72          C73   1.446       .  A
C72         C807   1.449       .  A
C73          C74   1.416       .  A
C73          C76   1.448       .  S
C74          C78   1.455       .  S
C75          N82   1.157       .  T
C76          N83   1.158       .  T
C77          N81   1.157       .  T
C78          N84   1.157       .  T
C79          N88   1.157       .  T
C80          N86   1.158       .  T
C89          C90   1.401       .  A
C89          C94   1.419       .  A
C89         C107   1.455       .  S
C90          C95   1.512       .  S
C90          C91   1.401       .  A
C91          C92   1.418       .  A
C91          C96   1.457       .  S
C92          C93   1.453       .  A
C92         C108   1.448       .  S
C93          C94   1.449       .  A
C94          C97   1.449       .  S
C95          C98   1.403       .  A
C95         C102   1.401       .  A
C96         N113   1.157       .  T
C97         N115   1.157       .  T
C98          C99   1.420       .  A
C98         C103   1.456       .  S
C99         C100   1.452       .  A
C99         C105   1.451       .  S
C100        C101   1.448       .  A
C101        C102   1.418       .  A
C101        C104   1.450       .  S
C102        C106   1.455       .  S
C103        N110   1.157       .  T
C104        N111   1.157       .  T
C105        N845   1.158       .  T
C106        N112   1.157       .  T
C107        N116   1.157       .  T
C108        N114   1.157       .  T
N109        C841   1.157       .  T
C117        C118   1.403       .  A
C117        C122   1.420       .  A
C117        C135   1.457       .  S
C118        C123   1.515       .  S
C118        C119   1.403       .  A
C119        C120   1.419       .  A
C119        C124   1.454       .  S
C120        C121   1.448       .  A
C120        C136   1.451       .  S
C121        C740   1.613       .  S
C121        C122   1.452       .  A
C122        C125   1.449       .  S
C123        C126   1.401       .  A
C123        C130   1.403       .  A
C124        N141   1.157       .  T
C125        N143   1.158       .  T
C126        C127   1.419       .  A
C126        C131   1.455       .  S
C127        C128   1.449       .  A
C127        C133   1.449       .  S
C128        C129   1.452       .  A
C129        C130   1.423       .  A
C129        C132   1.449       .  S
C130        C134   1.456       .  S
C131        N138   1.157       .  T
C132        N139   1.158       .  T
C133        N137   1.157       .  T
C134        N140   1.157       .  T
C135        N144   1.157       .  T
C136        N142   1.157       .  T
C145        C146   1.399       .  A
C145        C150   1.420       .  A
C145        C163   1.456       .  S
C146        C151   1.505       .  S
C146        C147   1.401       .  A
C147        C148   1.417       .  A
C147        C152   1.456       .  S
C148        C149   1.449       .  A
C148        C164   1.450       .  S
C149        C150   1.453       .  A
C150        C153   1.448       .  S
C151        C154   1.415       .  A
C151        C158   1.412       .  A
C152        N169   1.157       .  T
C153        N171   1.158       .  T
C154        C155   1.412       .  A
C154        C159   1.450       .  S
C155        C156   1.413       .  A
C155        C161   1.452       .  S
C156        C157   1.417       .  A
C157        C158   1.411       .  A
C157        C160   1.452       .  S
C158        C162   1.451       .  S
C159        N166   1.157       .  T
C160        N167   1.157       .  T
C161        N165   1.157       .  T
C162        N168   1.157       .  T
C163        N172   1.157       .  T
C164        N170   1.157       .  T
C173        C174   1.397       .  A
C173        C178   1.414       .  A
C173        C191   1.459       .  S
C174        C179   1.499       .  S
C174        C175   1.399       .  A
C175        C176   1.418       .  A
C175        C180   1.455       .  S
C176        C177   1.450       .  A
C176        C192   1.449       .  S
C177        C178   1.452       .  A
C178        C181   1.447       .  S
C179        C182   1.408       .  A
C179        C186   1.411       .  A
C180        N197   1.157       .  T
C181        N199   1.157       .  T
C182        C183   1.407       .  A
C182        C187   1.453       .  S
C183        C184   1.424       .  A
C183        C189   1.452       .  S
C184        C185   1.422       .  A
C185        C186   1.412       .  A
C185        C188   1.451       .  S
C186        C190   1.451       .  S
C187        N194   1.157       .  T
C188        N195   1.158       .  T
C189        N193   1.157       .  T
C190        N196   1.157       .  T
C191        N200   1.157       .  T
C192        N198   1.157       .  T
C201        C206   1.413       .  A
C201        C938   1.399   1_545  A
C201        C219   1.456       .  S
C202        C207   1.507       .  S
C202        C203   1.401       .  A
C202        C937   1.400       .  A
C203        C204   1.419       .  A
C203        C208   1.455       .  S
C204        C205   1.447       .  A
C204        C220   1.442       .  S
C205        C942   1.448       .  A
C206        C941   1.448   1_545  A
C206        C209   1.449       .  S
C207        C214   1.412       .  A
C207        C946   1.409       .  A
C208        N225   1.157       .  T
C209        N227   1.157       .  T
C210        C211   1.409   1_565  A
C210        C943   1.407       .  A
C210        C215   1.452   1_565  S
C211        C948   1.425   1_545  A
C211        C217   1.453       .  S
C212        C213   1.420       .  A
C212        C947   1.425       .  A
C213        C214   1.416       .  A
C213        C216   1.449       .  S
C214        C218   1.451       .  S
C215        N222   1.157       .  T
C216        N223   1.157       .  T
C217        N221   1.157       .  T
C218        N224   1.157       .  T
C219        N228   1.157       .  T
C220        N226   1.156       .  T
C229        C230   1.399       .  A
C229        C234   1.415       .  A
C229        C247   1.456       .  S
C230        C235   1.503       .  S
C230        C967   1.399       .  A
C231        C232   1.419       .  A
C231        C966   1.399   1_545  A
C231        C236   1.458       .  S
C232        C969   1.453   1_545  A
C232        C248   1.447       .  S
C233        C234   1.452       .  A
C233        C968   1.452       .  A
C234        C237   1.452       .  S
C235        C238   1.415       .  A
C235        C978   1.414       .  A
C236        N253   1.157       .  T
C237        N255   1.157       .  T
C238        C239   1.411       .  A
C238        C243   1.451       .  S
C239        C240   1.410       .  A
C239        C245   1.449       .  S
C240        C977   1.409       .  A
C241        C242   1.409       .  A
C241        C976   1.410       .  A
C241        C244   1.450       .  S
C242        C971   1.414       .  A
C242        C246   1.451       .  S
C243        N250   1.157       .  T
C244        N251   1.157   1_655  T
C245        N249   1.157       .  T
C246        N252   1.157       .  T
C247        N256   1.157       .  T
C248        N254   1.158       .  T
C257        C258   1.407       .  A
C257        C262   1.422       .  A
C257        C275   1.452       .  S
C258        C263   1.513       .  S
C258        C259   1.403       .  A
C259        C260   1.416       .  A
C259        C264   1.455       .  S
C260        C261   1.447       .  A
C260        C276   1.452       .  S
C261        C738   1.607   1_545  S
C261        C262   1.442       .  A
C262        C265   1.450       .  S
C263        C266   1.398       .  A
C263        C270   1.404       .  A
C264        N281   1.157       .  T
C265        N283   1.157   1_545  T
C266        C267   1.419       .  A
C266        C271   1.457       .  S
C267        C268   1.452       .  A
C267        C273   1.447       .  S
C268        C269   1.450       .  A
C269        C270   1.423       .  A
C269        C272   1.449       .  S
C270        C274   1.454       .  S
C271        N278   1.157       .  T
C272        N279   1.158       .  T
C273        N277   1.157       .  T
C274        N280   1.157       .  T
C275        N284   1.157       .  T
C276        N282   1.158       .  T
C285        C286   1.406       .  A
C285        C290   1.413       .  A
C285        C303   1.455       .  S
C286        C291   1.521       .  S
C286        C287   1.409       .  A
C287        C288   1.420       .  A
C287        C292   1.453       .  S
C288        C289   1.448       .  A
C288        C304   1.450       .  S
C289        C290   1.447       .  A
C290        C293   1.442       .  S
C291        C294   1.406       .  A
C291        C298   1.412       .  A
C292        N309   1.157       .  T
C293        N311   1.156       .  T
C294        C295   1.410       .  A
C294        C299   1.451       .  S
C295        C296   1.443       .  A
C295        C301   1.449       .  S
C296        C297   1.445       .  A
C297        C298   1.423       .  A
C297        C300   1.448       .  S
C298        C302   1.453       .  S
C299        N306   1.157       .  T
C300       N1043   1.157       .  T
C301        N305   1.157       .  T
C302        N308   1.157       .  T
C303        N312   1.157       .  T
C304        N310   1.157       .  T
N307       C1036   1.158       .  T
C313        C314   1.412       .  A
C313        C318   1.412       .  A
C313        C331   1.452       .  S
C314        C319   1.500       .  S
C314        C315   1.407       .  A
C315        C316   1.410       .  A
C315        C320   1.453       .  S
C316        C317   1.428       .  A
C316        C332   1.452       .  S
C317        C318   1.423       .  A
C318        C321   1.452       .  S
C319        C322   1.408       .  A
C319        C326   1.399       .  A
C320        N337   1.157       .  T
C321        N339   1.157       .  T
C322        C323   1.423       .  A
C322        C327   1.451       .  S
C323        C324   1.442       .  A
C323        C329   1.451       .  S
C324        C325   1.445       .  A
C325        C326   1.405       .  A
C325        C328   1.447       .  S
C326        C330   1.458       .  S
C327        N334   1.157       .  T
C328        N335   1.155       .  T
C329        N333   1.157       .  T
C330        N336   1.157       .  T
C331        N340   1.157       .  T
C332        N338   1.158       .  T
C341        C342   1.412       .  A
C341        C346   1.409       .  A
C341        C359   1.451       .  S
C342        C347   1.497       .  S
C342        C343   1.415       .  A
C343        C344   1.408       .  A
C343        C348   1.448       .  S
C344        C345   1.408       .  A
C344        C360   1.454       .  S
C345        C346   1.410       .  A
C346        C349   1.449       .  S
C347        C350   1.399       .  A
C347        C354   1.403       .  A
C348        N365   1.157       .  T
C349        N367   1.157       .  T
C350        C351   1.414       .  A
C350        C355   1.454       .  S
C351        C352   1.449       .  A
C351        C357   1.452       .  S
C352        C353   1.445       .  A
C353        C354   1.416       .  A
C353        C356   1.449       .  S
C354        C358   1.455       .  S
C355        N362   1.157       .  T
C356        N363   1.158       .  T
C357        N361   1.157       .  T
C358        N364   1.157       .  T
C359        N368   1.157       .  T
C360        N366   1.157       .  T
C369        C636   1.616       .  S
C369        C657   1.617       .  S
C369        C692   1.608       .  S
C369        C720   1.602       .  S
C370        C573   1.608       .  S
C370        C601   1.613       .  S
C370       C1365   1.611       .  S
C370        C664   1.616       .  S
C371        C461   1.616       .  S
C371        C496   1.611       .  S
C371        C517   1.612       .  S
C371        C545   1.614       .  S
C372        C412   1.607       .  S
C372        C440   1.613       .  S
C372        C468   1.615       .  S
C372       C1225   1.610       .  S
O373        C383   1.277       .  A
O374        C384   1.279       .  A
O374       Ni381   1.908   1_556  S
O375        C385   1.285       .  A
O376        C386   1.286       .  A
O376       Ni381   1.940   1_656  S
O377       C1122   1.278   1_545  A
O377       Ni382   1.902       .  S
O378       C1121   1.276   1_545  A
O379       C1120   1.283   1_545  A
O379       Ni382   1.924   1_455  S
O380       C1119   1.284   1_545  A
Ni381     Ni1118   2.385   1_455  S
Ni382     Ni1117   2.385   1_645  S
C383       O1116   1.283       .  A
C383        C608   1.478       .  S
C384       O1115   1.284       .  A
C384        C405   1.499       .  S
C385       O1114   1.278       .  A
C385        C433   1.487       .  S
C386       O1113   1.278       .  A
C386        C580   1.506       .  S
O387        C397   1.279       .  A
O388        C398   1.278       .  A
O388       Ni395   1.913       .  S
O389        C399   1.283       .  A
O390        C400   1.284       .  A
O390       Ni395   1.926       .  S
O391        C400   1.278       .  A
O391       Ni396   1.901       .  S
O392        C399   1.278       .  A
O393        C398   1.280       .  A
O393       Ni396   1.915       .  S
O394        C397   1.281       .  A
Ni395      Ni396   2.381       .  S
C397        C524   1.481       .  S
C398        C713   1.473       .  S
C399        C685   1.507       .  S
C400        C552   1.505       .  S
C401       C1138   1.408       .  A
C401        C406   1.413       .  A
C401        C419   1.450       .  S
C402        C407   1.500       .  S
C402       C1137   1.409       .  A
C402        C403   1.409       .  A
C403        C404   1.409       .  A
C403        C408   1.453       .  S
C404        C405   1.421       .  A
C404        C420   1.451       .  S
C405       C1142   1.420       .  A
C406       C1141   1.420       .  A
C406        C409   1.451       .  S
C407       C1146   1.400       .  A
C407        C414   1.397       .  A
C408        N425   1.157       .  T
C409        N427   1.158       .  T
C410       C1143   1.400       .  A
C410        C411   1.418       .  A
C410        C415   1.453   1_545  S
C411       C1148   1.449       .  A
C411        C417   1.449       .  S
C412       C1147   1.449       .  A
C412        C413   1.449       .  A
C413        C414   1.412       .  A
C413        C416   1.447       .  S
C414        C418   1.456       .  S
C415        N422   1.157       .  T
C416        N423   1.157       .  T
C417        N421   1.157       .  T
C418        N424   1.157       .  T
C419        N428   1.157       .  T
C420        N426   1.157       .  T
C429        C430   1.418       .  A
C429        C434   1.414       .  A
C429        C447   1.450       .  S
C430        C435   1.514       .  S
C430       C1167   1.421       .  A
C431       C1166   1.418       .  A
C431        C432   1.409       .  A
C431        C436   1.451       .  S
C432       C1169   1.411       .  A
C432        C448   1.452       .  S
C433       C1168   1.411       .  A
C433        C434   1.411       .  A
C434        C437   1.451       .  S
C435       C1174   1.404       .  A
C435        C442   1.408       .  A
C436        N453   1.157       .  T
C437        N455   1.157       .  T
C438       C1171   1.403       .  A
C438        C439   1.416       .  A
C438        C443   1.454       .  S
C439       C1176   1.450       .  A
C439        C445   1.450       .  S
C440       C1175   1.449       .  A
C440        C441   1.445       .  A
C441        C442   1.416       .  A
C441        C444   1.447       .  S
C442        C446   1.454       .  S
C443        N450   1.157       .  T
C444        N451   1.157       .  T
C445        N449   1.157       .  T
C446        N452   1.157       .  T
C447        N456   1.157       .  T
C448        N454   1.158       .  T
C457        C458   1.401       .  A
C457        C462   1.419       .  A
C457        C475   1.454       .  S
C458        C463   1.514       .  S
C458        C459   1.402       .  A
C459        C460   1.420       .  A
C459        C464   1.457       .  S
C460        C461   1.452       .  A
C460        C476   1.447       .  S
C461        C462   1.450       .  A
C462        C465   1.449       .  S
C463        C466   1.403       .  A
C463        C470   1.402       .  A
C464        N481   1.157       .  T
C465        N483   1.157       .  T
C466        C467   1.421       .  A
C466        C471   1.456       .  S
C467        C468   1.452       .  A
C467        C473   1.451       .  S
C468        C469   1.448       .  A
C469        C470   1.419       .  A
C469        C472   1.449       .  S
C470        C474   1.455       .  S
C471        N478   1.157       .  T
C472        N479   1.157       .  T
C473       N1213   1.158       .  T
C474        N480   1.157       .  T
C475        N484   1.157       .  T
C476        N482   1.157       .  T
N477       C1209   1.158       .  T
C485        C486   1.403       .  A
C485        C490   1.418       .  A
C485        C503   1.457       .  S
C486        C491   1.512       .  S
C486        C487   1.403       .  A
C487        C488   1.417       .  A
C487        C492   1.454       .  S
C488        C489   1.447       .  A
C488        C504   1.451       .  S
C489       C1108   1.609       .  S
C489        C490   1.451       .  A
C490        C493   1.449       .  S
C491        C494   1.402       .  A
C491        C498   1.404       .  A
C492        N509   1.157       .  T
C493        N511   1.158       .  T
C494        C495   1.418       .  A
C494        C499   1.455       .  S
C495        C496   1.448       .  A
C495        C501   1.449       .  S
C496        C497   1.450       .  A
C497        C498   1.421       .  A
C497        C500   1.450       .  S
C498        C502   1.456       .  S
C499        N506   1.157       .  T
C500        N507   1.158       .  T
C501        N505   1.157       .  T
C502        N508   1.157       .  T
C503        N512   1.157       .  T
C504        N510   1.157       .  T
C513        C514   1.396       .  A
C513        C518   1.417       .  A
C513        C531   1.457       .  S
C514        C519   1.501       .  S
C514        C515   1.402       .  A
C515        C516   1.417       .  A
C515        C520   1.455       .  S
C516        C517   1.449       .  A
C516        C532   1.451       .  S
C517        C518   1.453       .  A
C518        C521   1.446       .  S
C519        C522   1.416       .  A
C519        C526   1.411       .  A
C520        N537   1.157       .  T
C521        N539   1.157       .  T
C522        C523   1.408       .  A
C522        C527   1.450       .  S
C523        C524   1.410       .  A
C523        C529   1.452       .  S
C524        C525   1.415       .  A
C525        C526   1.410       .  A
C525        C528   1.452       .  S
C526        C530   1.451       .  S
C527        N534   1.157       .  T
C528        N535   1.157       .  T
C529        N533   1.157       .  T
C530        N536   1.157       .  T
C531        N540   1.157       .  T
C532        N538   1.157       .  T
C541        C542   1.397       .  A
C541        C546   1.414       .  A
C541        C559   1.459       .  S
C542        C547   1.500       .  S
C542        C543   1.400       .  A
C543        C544   1.419       .  A
C543        C548   1.455       .  S
C544        C545   1.450       .  A
C544        C560   1.449       .  S
C545        C546   1.452       .  A
C546        C549   1.445       .  S
C547        C550   1.407       .  A
C547        C554   1.411       .  A
C548        N565   1.157       .  T
C549        N567   1.156       .  T
C550        C551   1.409       .  A
C550        C555   1.453       .  S
C551        C552   1.426       .  A
C551        C557   1.453       .  S
C552        C553   1.422       .  A
C553        C554   1.412       .  A
C553        C556   1.451       .  S
C554        C558   1.451       .  S
C555        N562   1.157       .  T
C556        N563   1.158       .  T
C557        N561   1.157       .  T
C558        N564   1.157       .  T
C559        N568   1.157       .  T
C560        N566   1.157       .  T
C569       C1306   1.399   1_545  A
C569        C574   1.414       .  A
C569        C587   1.455       .  S
C570        C575   1.506       .  S
C570       C1305   1.400       .  A
C570        C571   1.400       .  A
C571        C572   1.420       .  A
C571        C576   1.455       .  S
C572        C573   1.448       .  A
C572        C588   1.442       .  S
C573       C1310   1.448       .  A
C574       C1309   1.448   1_545  A
C574        C577   1.450       .  S
C575       C1314   1.409       .  A
C575        C582   1.412       .  A
C576        N593   1.157       .  T
C577        N595   1.157       .  T
C578       C1311   1.408   1_545  A
C578        C579   1.410       .  A
C578        C583   1.452       .  S
C579       C1316   1.425   1_545  A
C579        C585   1.453       .  S
C580       C1315   1.424       .  A
C580        C581   1.420       .  A
C581        C582   1.417       .  A
C581        C584   1.449       .  S
C582        C586   1.451       .  S
C583        N590   1.157       .  T
C584        N591   1.157       .  T
C585        N589   1.157       .  T
C586        N592   1.157       .  T
C587        N596   1.157       .  T
C588        N594   1.156       .  T
C597        C598   1.399       .  A
C597        C602   1.415       .  A
C597        C615   1.456       .  S
C598        C603   1.502       .  S
C598       C1335   1.399       .  A
C599       C1334   1.401   1_545  A
C599        C600   1.421       .  A
C599        C604   1.458       .  S
C600       C1337   1.452   1_545  A
C600        C616   1.447       .  S
C601       C1336   1.453       .  A
C601        C602   1.452       .  A
C602        C605   1.452       .  S
C603        C606   1.415       .  A
C603       C1346   1.413       .  A
C604        N621   1.157       .  T
C605        N623   1.158       .  T
C606        C607   1.410       .  A
C606        C611   1.451       .  S
C607        C608   1.409       .  A
C607        C613   1.450       .  S
C608       C1345   1.410       .  A
C609       C1344   1.410       .  A
C609        C610   1.410       .  A
C609        C612   1.449       .  S
C610       C1339   1.414       .  A
C610        C614   1.451       .  S
C611        N618   1.157       .  T
C612        N619   1.157   1_655  T
C613        N617   1.157       .  T
C614        N620   1.157       .  T
C615        N624   1.157       .  T
C616        N622   1.158       .  T
C625        C626   1.407       .  A
C625        C630   1.422       .  A
C625        C643   1.452       .  S
C626        C631   1.514       .  S
C626        C627   1.402       .  A
C627        C628   1.416       .  A
C627        C632   1.455       .  S
C628        C629   1.449       .  A
C628        C644   1.452       .  S
C629       C1106   1.609   1_545  S
C629        C630   1.442       .  A
C630        C633   1.449       .  S
C631        C634   1.399       .  A
C631        C638   1.403       .  A
C632        N649   1.157       .  T
C633        N651   1.157   1_545  T
C634        C635   1.419       .  A
C634        C639   1.456       .  S
C635        C636   1.452       .  A
C635        C641   1.448       .  S
C636        C637   1.451       .  A
C637        C638   1.423       .  A
C637        C640   1.449       .  S
C638        C642   1.454       .  S
C639        N646   1.157       .  T
C640        N647   1.158       .  T
C641        N645   1.157       .  T
C642        N648   1.157       .  T
C643        N652   1.157       .  T
C644        N650   1.157       .  T
C653        C654   1.407       .  A
C653        C658   1.418       .  A
C653        C671   1.456       .  S
C654        C659   1.521       .  S
C654        C655   1.407       .  A
C655        C656   1.416       .  A
C655        C660   1.453       .  S
C656        C657   1.448       .  A
C656        C672   1.451       .  S
C657        C658   1.447       .  A
C658        C661   1.439       .  S
C659        C662   1.407       .  A
C659        C666   1.411       .  A
C660        N677   1.157       .  T
C661        N679   1.156       .  T
C662        C663   1.410       .  A
C662        C667   1.452       .  S
C663        C664   1.443       .  A
C663        C669   1.449       .  S
C664        C665   1.447       .  A
C665        C666   1.423       .  A
C665        C668   1.448       .  S
C666        C670   1.453       .  S
C667        N674   1.157       .  T
C668       N1411   1.157       .  T
C669        N673   1.158       .  T
C670        N676   1.157       .  T
C671        N680   1.157       .  T
C672        N678   1.157       .  T
N675       C1404   1.158       .  T
C681        C682   1.409       .  A
C681        C686   1.411       .  A
C681        C699   1.450       .  S
C682        C687   1.496       .  S
C682        C683   1.407       .  A
C683        C684   1.410       .  A
C683        C688   1.453       .  S
C684        C685   1.427       .  A
C684        C700   1.452       .  S
C685        C686   1.424       .  A
C686        C689   1.453       .  S
C687        C690   1.406       .  A
C687        C694   1.397       .  A
C688        N705   1.157       .  T
C689        N707   1.158       .  T
C690        C691   1.423       .  A
C690        C695   1.451       .  S
C691        C692   1.444       .  A
C691        C697   1.452       .  S
C692        C693   1.446       .  A
C693        C694   1.403       .  A
C693        C696   1.450       .  S
C694        C698   1.457       .  S
C695        N702   1.157       .  T
C696        N703   1.157       .  T
C697        N701   1.157       .  T
C698        N704   1.157       .  T
C699        N708   1.157       .  T
C700        N706   1.158       .  T
C709        C710   1.413       .  A
C709        C714   1.410       .  A
C709        C727   1.451       .  S
C710        C715   1.500       .  S
C710        C711   1.415       .  A
C711        C712   1.408       .  A
C711        C716   1.449       .  S
C712        C713   1.407       .  A
C712        C728   1.453       .  S
C713        C714   1.410       .  A
C714        C717   1.451       .  S
C715        C718   1.399       .  A
C715        C722   1.405       .  A
C716        N733   1.157       .  T
C717        N735   1.157       .  T
C718        C719   1.413       .  A
C718        C723   1.454       .  S
C719        C720   1.451       .  A
C719        C725   1.454       .  S
C720        C721   1.444       .  A
C721        C722   1.417       .  A
C721        C724   1.448       .  S
C722        C726   1.455       .  S
C723        N730   1.157       .  T
C724        N731   1.158       .  T
C725        N729   1.157       .  T
C726        N732   1.157       .  T
C727        N736   1.157       .  T
C728        N734   1.157       .  T
C737       C1004   1.612       .  S
C737       C1025   1.621       .  S
C737       C1060   1.615       .  S
C737       C1088   1.599       .  S
C738        C941   1.606       .  S
C738        C969   1.614       .  S
C738       C1032   1.617       .  S
C739        C829   1.616       .  S
C739        C864   1.615       .  S
C739        C885   1.613       .  S
C739        C913   1.614       .  S
C740        C780   1.606       .  S
C740        C808   1.612       .  S
C740        C836   1.615   1_545  S
O741        C751   1.277       .  A
O741      Ni1117   1.912   1_654  S
O742        C752   1.279       .  A
O742       Ni749   1.909       .  S
O743        C753   1.285   1_565  A
O743      Ni1117   1.933   1_554  S
O744        C754   1.287       .  A
O744       Ni749   1.941   1_655  S
O745       Ni750   1.908       .  S
O746      Ni1118   1.908   1_455  S
O747       Ni750   1.926   1_455  S
O748      Ni1118   1.929       .  S
Ni749      O1109   1.913   1_455  S
Ni749      O1111   1.932       .  S
Ni750      O1114   1.910   1_655  S
Ni750      O1116   1.927       .  S
C751        C976   1.479       .  S
C752        C773   1.496       .  S
C753        C801   1.482       .  S
C754        C948   1.504       .  S
O755        C765   1.279       .  A
O755      Ni1131   1.913       .  S
O756        C766   1.280       .  A
O756       Ni763   1.909   1_554  S
O757        C767   1.283       .  A
O757      Ni1131   1.924       .  S
O758        C768   1.283       .  A
O758       Ni763   1.923   1_554  S
O759        C768   1.279       .  A
O759       Ni764   1.909   1_554  S
O760        C767   1.281       .  A
O760      Ni1132   1.912       .  S
O761        C766   1.280       .  A
O761       Ni764   1.915   1_554  S
O762        C765   1.281       .  A
O762      Ni1132   1.913       .  S
Ni763      O1123   1.919       .  S
Ni763      O1125   1.922       .  S
Ni763      Ni764   2.383       .  S
Ni764      O1128   1.907       .  S
Ni764      O1130   1.910       .  S
C765        C892   1.483       .  S
C766       C1081   1.481       .  S
C767       C1053   1.500       .  S
C768        C920   1.511       .  S
C769        C774   1.414       .  A
C769        C787   1.450       .  S
C770        C775   1.496       .  S
C770        C771   1.409   1_545  A
C771        C772   1.408       .  A
C771        C776   1.453       .  S
C772        C773   1.420       .  A
C772        C788   1.450       .  S
C774        C777   1.451       .  S
C775        C782   1.397       .  A
C776        N793   1.157       .  T
C777        N795   1.158       .  T
C778        C779   1.421       .  A
C778        C783   1.453       .  S
C779        C785   1.449       .  S
C780        C781   1.447       .  A
C781        C782   1.408       .  A
C781        C784   1.447       .  S
C782        C786   1.455       .  S
C783        N790   1.157       .  T
C784        N791   1.157   1_545  T
C785        N789   1.157       .  T
C786        N792   1.157       .  T
C787        N796   1.157       .  T
C788        N794   1.157       .  T
C797        C798   1.417       .  A
C797        C802   1.413       .  A
C797        C815   1.451       .  S
C798        C803   1.511       .  S
C799        C800   1.410       .  A
C799        C804   1.450       .  S
C800        C816   1.452       .  S
C801        C802   1.410       .  A
C802        C805   1.451   1_545  S
C803        C810   1.406   1_545  A
C804        N821   1.157       .  T
C805        N823   1.157   1_554  T
C806        C807   1.417       .  A
C806        C811   1.454       .  S
C807        C813   1.451       .  S
C808        C809   1.446   1_545  A
C809        C810   1.416       .  A
C809        C812   1.446       .  S
C810        C814   1.455       .  S
C811        N818   1.157       .  T
C812        N819   1.157       .  T
C813        N817   1.157       .  T
C814        N820   1.157       .  T
C815        N824   1.157       .  T
C816        N822   1.158       .  T
C825        C826   1.402       .  A
C825        C830   1.422       .  A
C825        C843   1.454       .  S
C826        C831   1.512       .  S
C826        C827   1.399       .  A
C827        C828   1.417       .  A
C827        C832   1.457       .  S
C828        C829   1.452       .  A
C828        C844   1.445       .  S
C829        C830   1.449       .  A
C830        C833   1.448       .  S
C831        C834   1.403       .  A
C831        C838   1.400       .  A
C832        N849   1.157       .  T
C833        N851   1.157       .  T
C834        C835   1.421       .  A
C834        C839   1.456       .  S
C835        C836   1.451       .  A
C835        C841   1.449   1_565  S
C836        C837   1.449       .  A
C837        C838   1.419       .  A
C837        C840   1.450       .  S
C838        C842   1.454       .  S
C839        N846   1.157       .  T
C840        N847   1.157       .  T
C842        N848   1.157       .  T
C843        N852   1.157       .  T
C844        N850   1.156       .  T
C853        C854   1.404       .  A
C853        C858   1.421       .  A
C853        C871   1.455       .  S
C854        C859   1.517       .  S
C854        C855   1.403       .  A
C855        C856   1.417       .  A
C855        C860   1.454       .  S
C856        C857   1.448       .  A
C856        C872   1.450       .  S
C857        C858   1.450       .  A
C858        C861   1.447       .  S
C859        C862   1.403       .  A
C859        C866   1.404       .  A
C860        N877   1.157       .  T
C861        N879   1.158       .  T
C862        C863   1.421       .  A
C862        C867   1.455       .  S
C863        C864   1.448       .  A
C863        C869   1.449       .  S
C864        C865   1.450       .  A
C865        C866   1.423       .  A
C865        C868   1.449       .  S
C866        C870   1.456       .  S
C867        N874   1.157       .  T
C868        N875   1.157       .  T
C869        N873   1.157       .  T
C870        N876   1.157       .  T
C871        N880   1.157       .  T
C872        N878   1.157       .  T
C881        C882   1.399       .  A
C881        C886   1.417       .  A
C881        C899   1.457       .  S
C882        C887   1.503       .  S
C882        C883   1.401       .  A
C883        C884   1.419       .  A
C883        C888   1.455       .  S
C884        C885   1.450       .  A
C884        C900   1.450       .  S
C885        C886   1.451       .  A
C886        C889   1.448       .  S
C887        C890   1.416       .  A
C887        C894   1.413       .  A
C888        N905   1.157       .  T
C889        N907   1.158       .  T
C890        C891   1.408       .  A
C890        C895   1.449       .  S
C891        C892   1.410       .  A
C891        C897   1.453       .  S
C892        C893   1.415       .  A
C893        C894   1.411       .  A
C893        C896   1.451       .  S
C894        C898   1.451       .  S
C895        N902   1.157       .  T
C896        N903   1.157       .  T
C897        N901   1.157       .  T
C898        N904   1.157       .  T
C899        N908   1.157       .  T
C900        N906   1.157       .  T
C909        C910   1.396       .  A
C909        C914   1.412       .  A
C909        C927   1.459       .  S
C910        C915   1.499       .  S
C910        C911   1.400       .  A
C911        C912   1.422       .  A
C911        C916   1.453       .  S
C912        C913   1.450       .  A
C912        C928   1.448       .  S
C913        C914   1.450       .  A
C914        C917   1.443       .  S
C915        C918   1.406       .  A
C915        C922   1.408       .  A
C916        N933   1.157       .  T
C917        N935   1.155       .  T
C918        C919   1.411       .  A
C918        C923   1.453       .  S
C919        C920   1.428       .  A
C919        C925   1.452       .  S
C920        C921   1.426       .  A
C921        C922   1.413       .  A
C921        C924   1.452       .  S
C922        C926   1.451       .  S
C923        N930   1.157       .  T
C924        N931   1.158       .  T
C925        N929   1.157       .  T
C926        N932   1.157       .  T
C927        N936   1.157       .  T
C928        N934   1.157       .  T
C937        C942   1.415       .  A
C937        C955   1.455       .  S
C938        C943   1.503       .  S
C938        C939   1.399       .  A
C939        C940   1.420       .  A
C939        C944   1.456       .  S
C940        C941   1.448       .  A
C940        C956   1.441       .  S
C942        C945   1.450       .  S
C943        C950   1.411       .  A
C944        N961   1.157       .  T
C945        N963   1.157       .  T
C946        C947   1.412       .  A
C946        C951   1.452       .  S
C947        C953   1.453       .  S
C948        C949   1.420       .  A
C949        C950   1.416       .  A
C949        C952   1.449       .  S
C950        C954   1.451       .  S
C951        N958   1.157       .  T
C952        N959   1.157       .  T
C953        N957   1.157       .  T
C954        N960   1.157       .  T
C955        N964   1.157       .  T
C956        N962   1.155       .  T
C965        C966   1.398       .  A
C965        C970   1.414       .  A
C965        C983   1.455       .  S
C966        C971   1.502       .  S
C967        C968   1.419       .  A
C967        C972   1.458       .  S
C968        C984   1.447       .  S
C969        C970   1.452       .  A
C970        C973   1.452       .  S
C971        C974   1.414       .  A
C972        N989   1.157       .  T
C973        N991   1.158       .  T
C974        C975   1.410       .  A
C974        C979   1.451       .  S
C975        C976   1.409       .  A
C975        C981   1.449       .  S
C977        C978   1.409       .  A
C977        C980   1.449       .  S
C978        C982   1.451       .  S
C979        N986   1.157       .  T
C980        N987   1.157   1_655  T
C981        N985   1.157       .  T
C982        N988   1.157       .  T
C983        N992   1.157       .  T
C984        N990   1.158       .  T
C993        C994   1.407       .  A
C993        C998   1.422       .  A
C993       C1011   1.453       .  S
C994        C999   1.515       .  S
C994        C995   1.402       .  A
C995        C996   1.419       .  A
C995       C1000   1.455       .  S
C996        C997   1.451       .  A
C996       C1012   1.451       .  S
C997        C998   1.444       .  A
C998       C1001   1.450       .  S
C999       C1002   1.399       .  A
C999       C1006   1.405       .  A
C1000      N1017   1.157       .  T
C1001      N1019   1.157       .  T
C1002      C1003   1.417       .  A
C1002      C1007   1.456       .  S
C1003      C1004   1.450       .  A
C1003      C1009   1.448       .  S
C1004      C1005   1.450       .  A
C1005      C1006   1.425       .  A
C1005      C1008   1.448       .  S
C1006      C1010   1.454       .  S
C1007      N1014   1.157       .  T
C1008      N1015   1.158       .  T
C1009      N1013   1.157       .  T
C1010      N1016   1.157       .  T
C1011      N1020   1.157       .  T
C1012      N1018   1.158       .  T
C1021      C1022   1.406       .  A
C1021      C1026   1.413       .  A
C1021      C1039   1.454       .  S
C1022      C1027   1.520       .  S
C1022      C1023   1.408       .  A
C1023      C1024   1.421       .  A
C1023      C1028   1.454       .  S
C1024      C1025   1.451       .  A
C1024      C1040   1.449       .  S
C1025      C1026   1.446       .  A
C1026      C1029   1.444       .  S
C1027      C1030   1.407       .  A
C1027      C1034   1.412       .  A
C1028      N1045   1.157       .  T
C1029      N1047   1.156       .  T
C1030      C1031   1.408       .  A
C1030      C1035   1.450       .  S
C1031      C1032   1.439       .  A
C1031      C1037   1.449       .  S
C1032      C1033   1.448       .  A
C1033      C1034   1.425       .  A
C1033      C1036   1.447       .  S
C1034      C1038   1.453       .  S
C1035      N1042   1.157       .  T
C1037      N1041   1.158       .  T
C1038      N1044   1.157       .  T
C1039      N1048   1.157       .  T
C1040      N1046   1.157       .  T
C1049      C1050   1.416       .  A
C1049      C1054   1.412       .  A
C1049      C1067   1.451       .  S
C1050      C1055   1.507       .  S
C1050      C1051   1.411       .  A
C1051      C1052   1.412       .  A
C1051      C1056   1.451       .  S
C1052      C1053   1.420       .  A
C1052      C1068   1.451       .  S
C1053      C1054   1.417       .  A
C1054      C1057   1.452       .  S
C1055      C1058   1.406       .  A
C1055      C1062   1.398       .  A
C1056      N1073   1.157       .  T
C1057      N1075   1.157       .  T
C1058      C1059   1.423       .  A
C1058      C1063   1.452       .  S
C1059      C1060   1.446       .  A
C1059      C1065   1.452       .  S
C1060      C1061   1.453       .  A
C1061      C1062   1.414       .  A
C1061      C1064   1.447       .  S
C1062      C1066   1.460       .  S
C1063      N1070   1.157       .  T
C1064      N1071   1.157       .  T
C1065      N1069   1.157       .  T
C1066      N1072   1.157       .  T
C1067      N1076   1.157       .  T
C1068      N1074   1.158       .  T
C1077      C1078   1.409       .  A
C1077      C1082   1.406       .  A
C1077      C1095   1.452       .  S
C1078      C1083   1.494       .  S
C1078      C1079   1.412       .  A
C1079      C1080   1.410       .  A
C1079      C1084   1.449       .  S
C1080      C1081   1.413       .  A
C1080      C1096   1.451       .  S
C1081      C1082   1.416       .  A
C1082      C1085   1.452       .  S
C1083      C1086   1.402       .  A
C1083      C1090   1.398       .  A
C1084      N1101   1.157       .  T
C1085      N1103   1.157       .  T
C1086      C1087   1.412       .  A
C1086      C1091   1.455       .  S
C1087      C1088   1.445       .  A
C1087      C1093   1.452       .  S
C1088      C1089   1.450       .  A
C1089      C1090   1.415       .  A
C1089      C1092   1.450       .  S
C1090      C1094   1.455       .  S
C1091      N1098   1.157       .  T
C1092      N1099   1.158       .  T
C1093      N1097   1.157       .  T
C1094      N1100   1.157       .  T
C1095      N1104   1.157       .  T
C1096      N1102   1.158       .  T
C1105      C1372   1.612       .  S
C1105      C1393   1.617       .  S
C1105      C1428   1.612       .  S
C1105      C1456   1.600       .  S
C1106      C1309   1.607       .  S
C1106      C1337   1.615       .  S
C1106      C1400   1.617       .  S
C1107      C1197   1.617       .  S
C1107      C1232   1.612       .  S
C1107      C1253   1.612       .  S
C1107      C1281   1.618       .  S
C1108      C1148   1.604       .  S
C1108      C1176   1.610       .  S
C1108      C1204   1.615   1_545  S
O1109      C1119   1.278       .  A
O1110      C1120   1.279       .  A
O1110     Ni1117   1.907       .  S
O1111      C1121   1.285       .  A
O1112      C1122   1.287       .  A
O1112     Ni1117   1.943   1_655  S
O1113     Ni1118   1.904   1_556  S
O1115     Ni1118   1.927   1_456  S
C1119      C1344   1.482       .  S
C1120      C1141   1.496   1_565  S
C1121      C1169   1.481   1_565  S
C1122      C1316   1.507       .  S
O1123      C1133   1.280       .  A
O1124      C1134   1.279       .  A
O1124     Ni1131   1.908       .  S
O1125      C1135   1.283       .  A
O1126      C1136   1.283       .  A
O1126     Ni1131   1.921       .  S
O1127      C1136   1.280       .  A
O1127     Ni1132   1.913       .  S
O1128      C1135   1.280       .  A
O1129      C1134   1.281       .  A
O1129     Ni1132   1.917       .  S
O1130      C1133   1.281       .  A
Ni1131    Ni1132   2.382       .  S
C1133      C1260   1.485       .  S
C1134      C1449   1.481       .  S
C1135      C1421   1.491       .  S
C1136      C1288   1.513       .  S
C1137      C1142   1.414       .  A
C1137      C1155   1.450       .  S
C1138      C1143   1.495       .  S
C1138      C1139   1.408   1_545  A
C1139      C1140   1.407       .  A
C1139      C1144   1.453       .  S
C1140      C1141   1.420   1_565  A
C1140      C1156   1.450       .  S
C1142      C1145   1.451       .  S
C1143      C1150   1.396       .  A
C1144      N1161   1.157       .  T
C1145      N1163   1.158       .  T
C1146      C1147   1.419       .  A
C1146      C1151   1.454       .  S
C1147      C1153   1.449       .  S
C1148      C1149   1.446       .  A
C1149      C1150   1.407       .  A
C1149      C1152   1.447       .  S
C1150      C1154   1.455       .  S
C1151      N1158   1.157       .  T
C1152      N1159   1.157   1_545  T
C1153      N1157   1.157       .  T
C1154      N1160   1.157       .  T
C1155      N1164   1.157       .  T
C1156      N1162   1.157       .  T
C1165      C1166   1.417       .  A
C1165      C1170   1.412   1_545  A
C1165      C1183   1.451       .  S
C1166      C1171   1.508       .  S
C1167      C1168   1.411       .  A
C1167      C1172   1.451       .  S
C1168      C1184   1.452       .  S
C1169      C1170   1.410   1_545  A
C1170      C1173   1.451       .  S
C1171      C1178   1.405   1_545  A
C1172      N1189   1.158       .  T
C1173      N1191   1.157       .  T
C1174      C1175   1.416       .  A
C1174      C1179   1.454       .  S
C1175      C1181   1.449       .  S
C1176      C1177   1.444   1_545  A
C1177      C1178   1.413       .  A
C1177      C1180   1.445       .  S
C1178      C1182   1.455       .  S
C1179      N1186   1.157       .  T
C1180      N1187   1.157       .  T
C1181      N1185   1.157       .  T
C1182      N1188   1.157       .  T
C1183      N1192   1.157   1_545  T
C1184      N1190   1.158       .  T
C1193      C1194   1.401       .  A
C1193      C1198   1.420       .  A
C1193      C1211   1.454       .  S
C1194      C1199   1.515       .  S
C1194      C1195   1.402       .  A
C1195      C1196   1.421       .  A
C1195      C1200   1.456       .  S
C1196      C1197   1.451       .  A
C1196      C1212   1.446       .  S
C1197      C1198   1.450       .  A
C1198      C1201   1.449       .  S
C1199      C1202   1.403       .  A
C1199      C1206   1.403       .  A
C1200      N1217   1.157       .  T
C1201      N1219   1.157       .  T
C1202      C1203   1.421       .  A
C1202      C1207   1.455       .  S
C1203      C1204   1.450       .  A
C1203      C1209   1.450   1_565  S
C1204      C1205   1.448       .  A
C1205      C1206   1.420       .  A
C1205      C1208   1.450       .  S
C1206      C1210   1.454       .  S
C1207      N1214   1.157       .  T
C1208      N1215   1.157       .  T
C1210      N1216   1.157       .  T
C1211      N1220   1.157       .  T
C1212      N1218   1.157       .  T
C1221      C1222   1.402       .  A
C1221      C1226   1.417       .  A
C1221      C1239   1.456       .  S
C1222      C1227   1.511       .  S
C1222      C1223   1.402       .  A
C1223      C1224   1.417       .  A
C1223      C1228   1.453       .  S
C1224      C1225   1.447       .  A
C1224      C1240   1.451       .  S
C1225      C1226   1.451       .  A
C1226      C1229   1.448       .  S
C1227      C1230   1.400       .  A
C1227      C1234   1.403       .  A
C1228      N1245   1.157       .  T
C1229      N1247   1.158       .  T
C1230      C1231   1.418       .  A
C1230      C1235   1.455       .  S
C1231      C1232   1.449       .  A
C1231      C1237   1.449       .  S
C1232      C1233   1.452       .  A
C1233      C1234   1.421       .  A
C1233      C1236   1.451       .  S
C1234      C1238   1.456       .  S
C1235      N1242   1.157       .  T
C1236      N1243   1.158       .  T
C1237      N1241   1.157       .  T
C1238      N1244   1.157       .  T
C1239      N1248   1.157       .  T
C1240      N1246   1.157       .  T
C1249      C1250   1.400       .  A
C1249      C1254   1.418       .  A
C1249      C1267   1.456       .  S
C1250      C1255   1.504       .  S
C1250      C1251   1.402       .  A
C1251      C1252   1.419       .  A
C1251      C1256   1.455       .  S
C1252      C1253   1.450       .  A
C1252      C1268   1.451       .  S
C1253      C1254   1.451       .  A
C1254      C1257   1.449       .  S
C1255      C1258   1.416       .  A
C1255      C1262   1.413       .  A
C1256      N1273   1.157       .  T
C1257      N1275   1.158       .  T
C1258      C1259   1.408       .  A
C1258      C1263   1.449       .  S
C1259      C1260   1.411       .  A
C1259      C1265   1.453       .  S
C1260      C1261   1.414       .  A
C1261      C1262   1.412       .  A
C1261      C1264   1.449       .  S
C1262      C1266   1.451       .  S
C1263      N1270   1.157       .  T
C1264      N1271   1.157       .  T
C1265      N1269   1.158       .  T
C1266      N1272   1.157       .  T
C1267      N1276   1.157       .  T
C1268      N1274   1.157       .  T
C1277      C1278   1.395       .  A
C1277      C1282   1.413       .  A
C1277      C1295   1.461       .  S
C1278      C1283   1.501       .  S
C1278      C1279   1.399       .  A
C1279      C1280   1.422       .  A
C1279      C1284   1.454       .  S
C1280      C1281   1.451       .  A
C1280      C1296   1.449       .  S
C1281      C1282   1.453       .  A
C1282      C1285   1.443       .  S
C1283      C1286   1.407       .  A
C1283      C1290   1.409       .  A
C1284      N1301   1.157       .  T
C1285      N1303   1.155       .  T
C1286      C1287   1.413       .  A
C1286      C1291   1.453       .  S
C1287      C1288   1.429       .  A
C1287      C1293   1.452       .  S
C1288      C1289   1.426       .  A
C1289      C1290   1.411       .  A
C1289      C1292   1.452       .  S
C1290      C1294   1.452       .  S
C1291      N1298   1.157       .  T
C1292      N1299   1.158       .  T
C1293      N1297   1.158       .  T
C1294      N1300   1.157       .  T
C1295      N1304   1.157       .  T
C1296      N1302   1.157       .  T
C1305      C1310   1.414       .  A
C1305      C1323   1.455       .  S
C1306      C1311   1.506       .  S
C1306      C1307   1.400       .  A
C1307      C1308   1.421       .  A
C1307      C1312   1.455       .  S
C1308      C1309   1.447       .  A
C1308      C1324   1.441       .  S
C1310      C1313   1.450       .  S
C1311      C1318   1.412       .  A
C1312      N1329   1.157       .  T
C1313      N1331   1.157       .  T
C1314      C1315   1.410       .  A
C1314      C1319   1.452       .  S
C1315      C1321   1.453       .  S
C1316      C1317   1.420       .  A
C1317      C1318   1.417       .  A
C1317      C1320   1.449       .  S
C1318      C1322   1.451       .  S
C1319      N1326   1.157       .  T
C1320      N1327   1.157       .  T
C1321      N1325   1.157       .  T
C1322      N1328   1.157       .  T
C1323      N1332   1.157       .  T
C1324      N1330   1.155       .  T
C1333      C1334   1.399       .  A
C1333      C1338   1.416       .  A
C1333      C1351   1.456       .  S
C1334      C1339   1.506       .  S
C1335      C1336   1.418       .  A
C1335      C1340   1.458       .  S
C1336      C1352   1.447       .  S
C1337      C1338   1.453       .  A
C1338      C1341   1.453       .  S
C1339      C1342   1.415       .  A
C1340      N1357   1.157       .  T
C1341      N1359   1.158       .  T
C1342      C1343   1.412       .  A
C1342      C1347   1.451       .  S
C1343      C1344   1.410       .  A
C1343      C1349   1.449       .  S
C1345      C1346   1.409       .  A
C1345      C1348   1.449       .  S
C1346      C1350   1.451       .  S
C1347      N1354   1.157       .  T
C1348      N1355   1.157   1_655  T
C1349      N1353   1.157       .  T
C1350      N1356   1.157       .  T
C1351      N1360   1.157       .  T
C1352      N1358   1.158       .  T
C1361      C1362   1.407       .  A
C1361      C1366   1.421       .  A
C1361      C1379   1.452       .  S
C1362      C1367   1.514       .  S
C1362      C1363   1.402       .  A
C1363      C1364   1.418       .  A
C1363      C1368   1.455       .  S
C1364      C1365   1.449       .  A
C1364      C1380   1.451       .  S
C1365      C1366   1.443       .  A
C1366      C1369   1.450       .  S
C1367      C1370   1.399       .  A
C1367      C1374   1.405       .  A
C1368      N1385   1.157       .  T
C1369      N1387   1.157       .  T
C1370      C1371   1.416       .  A
C1370      C1375   1.456       .  S
C1371      C1372   1.450       .  A
C1371      C1377   1.448       .  S
C1372      C1373   1.450       .  A
C1373      C1374   1.424       .  A
C1373      C1376   1.449       .  S
C1374      C1378   1.454       .  S
C1375      N1382   1.157       .  T
C1376      N1383   1.158       .  T
C1377      N1381   1.157       .  T
C1378      N1384   1.157       .  T
C1379      N1388   1.157       .  T
C1380      N1386   1.157       .  T
C1389      C1390   1.408       .  A
C1389      C1394   1.413       .  A
C1389      C1407   1.454       .  S
C1390      C1395   1.521       .  S
C1390      C1391   1.409       .  A
C1391      C1392   1.418       .  A
C1391      C1396   1.453       .  S
C1392      C1393   1.449       .  A
C1392      C1408   1.449       .  S
C1393      C1394   1.446       .  A
C1394      C1397   1.444       .  S
C1395      C1398   1.407       .  A
C1395      C1402   1.412       .  A
C1396      N1413   1.157       .  T
C1397      N1415   1.157       .  T
C1398      C1399   1.408       .  A
C1398      C1403   1.451       .  S
C1399      C1400   1.440       .  A
C1399      C1405   1.449       .  S
C1400      C1401   1.448       .  A
C1401      C1402   1.424       .  A
C1401      C1404   1.447       .  S
C1402      C1406   1.453       .  S
C1403      N1410   1.157       .  T
C1405      N1409   1.158       .  T
C1406      N1412   1.157       .  T
C1407      N1416   1.157       .  T
C1408      N1414   1.157       .  T
C1417      C1418   1.417       .  A
C1417      C1422   1.410       .  A
C1417      C1435   1.452       .  S
C1418      C1423   1.503       .  S
C1418      C1419   1.411       .  A
C1419      C1420   1.410       .  A
C1419      C1424   1.451       .  S
C1420      C1421   1.418       .  A
C1420      C1436   1.452       .  S
C1421      C1422   1.413       .  A
C1422      C1425   1.452       .  S
C1423      C1426   1.405       .  A
C1423      C1430   1.397       .  A
C1424      N1441   1.157       .  T
C1425      N1443   1.157       .  T
C1426      C1427   1.422       .  A
C1426      C1431   1.452       .  S
C1427      C1428   1.446       .  A
C1427      C1433   1.452       .  S
C1428      C1429   1.453       .  A
C1429      C1430   1.412       .  A
C1429      C1432   1.448       .  S
C1430      C1434   1.460       .  S
C1431      N1438   1.157       .  T
C1432      N1439   1.157       .  T
C1433      N1437   1.157       .  T
C1434      N1440   1.157       .  T
C1435      N1444   1.157       .  T
C1436      N1442   1.158       .  T
C1445      C1446   1.410       .  A
C1445      C1450   1.406       .  A
C1445      C1463   1.452       .  S
C1446      C1451   1.495       .  S
C1446      C1447   1.413       .  A
C1447      C1448   1.411       .  A
C1447      C1452   1.449       .  S
C1448      C1449   1.412       .  A
C1448      C1464   1.451       .  S
C1449      C1450   1.415       .  A
C1450      C1453   1.452       .  S
C1451      C1454   1.402       .  A
C1451      C1458   1.399       .  A
C1452      N1469   1.157       .  T
C1453      N1471   1.157       .  T
C1454      C1455   1.413       .  A
C1454      C1459   1.455       .  S
C1455      C1456   1.446       .  A
C1455      C1461   1.452       .  S
C1456      C1457   1.448       .  A
C1457      C1458   1.415       .  A
C1457      C1460   1.449       .  S
C1458      C1462   1.455       .  S
C1459      N1466   1.157       .  T
C1460      N1467   1.157       .  T
C1461      N1465   1.157       .  T
C1462      N1468   1.157       .  T
C1463      N1472   1.157       .  T
C1464      N1470   1.157       .  T
