geometry optimzed in LAMMPS
_audit_creation_date              2020-11-30 
_audit_creation_method            'lammps2cif' 
_symmetry_space_group_name_H-M    'P1' 
_symmetry_Int_Tables_number       1 
_symmetry_cell_setting            triclinic 
loop_ 
_symmetry_equiv_pos_as_xyz 
  x,y,z 
_cell_length_a                    34.66242933 
_cell_length_b                    25.812170311056693 
_cell_length_c                    38.744033132722734 
_cell_angle_alpha                 89.53357401653027 
_cell_angle_beta                  92.07391260024191 
_cell_angle_gamma                 88.74726142894447 
loop_ 
_atom_site_label 
_atom_site_type_symbol 
_atom_site_fract_x 
_atom_site_fract_y 
_atom_site_fract_z 
_atom_site_charge 
O1          O  0.21536696  0.54739789  0.03464708    -0.74200
O2          O  0.21692037  0.45117101  0.46000513    -0.74300
O3          O  0.21140491  0.44332223  0.02955155    -0.74300
O4          O  0.22192076  0.55524617  0.46486777    -0.74400
O5          O  0.28610118  0.54732016  0.46946547    -0.74300
O6          O  0.27563877  0.43701541  0.03462660    -0.74300
O7          O  0.28100270  0.44414885  0.46458995    -0.74300
O8          O  0.27948299  0.54163950  0.03907013    -0.74300
Ni9        Ni  0.21353076  0.49967139  0.99681207     1.25400
Ni10       Ni  0.28360410  0.49143708  0.50229881     1.25400
C11         C  0.24736529  0.55962690  0.04974170     0.87900
C12         C  0.24901200  0.43350318  0.44897638     0.87900
C13         C  0.24218292  0.42266551  0.04349165     0.87900
C14         C  0.25549886  0.56818467  0.45539935     0.88100
O15         O  0.03849206  0.05402750  0.46832558    -0.74200
O16         O  0.03289053  0.94553455  0.03679925    -0.74300
O17         O  0.03060092  0.95038466  0.46609909    -0.74300
O18         O  0.04033541  0.04971669  0.03869793    -0.74400
O19         O  0.47598996  0.05966986  0.03837270    -0.74300
O20         O  0.46743319  0.95904887  0.46605253    -0.74300
O21         O  0.46807483  0.95656643  0.03646383    -0.74300
O22         O  0.47478417  0.06365269  0.46770641    -0.74300
Ni23       Ni  0.03811531  0.99933925  0.00246217     1.25400
Ni24       Ni  0.46904197  0.01033524  0.00204264     1.25400
C25         C  0.00732539  0.07601194  0.45622810     0.87900
C26         C  0.00000328  0.93424544  0.04870217     0.87900
C27         C  0.99713909  0.93920873  0.45349014     0.87900
C28         C  0.00978754  0.06959227  0.05135720     0.88100
C29         C  0.46301534  0.25519650  0.25103522     0.30200
C30         C  0.04226179  0.25997443  0.25452654     0.30200
C31         C  0.47994759  0.31035920  0.24761215    -0.06000
C32         C  0.48288755  0.23810141  0.28587357    -0.06800
C33         C  0.48503744  0.22372622  0.22439957    -0.06700
C34         C  0.02054059  0.31236015  0.24946882    -0.06000
C35         C  0.02308290  0.24060956  0.28748535    -0.06800
C36         C  0.02470122  0.22712747  0.22586182    -0.06700
C37         C  0.02975558  0.36255793  0.25796246    -0.32100
N38         N  0.99697235  0.39171119  0.25861855     0.14500
C39         C  0.46637147  0.36018225  0.25435331    -0.32100
H40         H  0.43652810  0.37249145  0.25675165     0.16400
C41         C  0.03508745  0.22574550  0.32052005    -0.31000
N42         N  0.00377891  0.21228369  0.33827687     0.13200
C43         C  0.47177637  0.22113588  0.31791742    -0.31000
C44         C  0.03881843  0.20351529  0.19713668    -0.31300
N45         N  0.00887259  0.18348746  0.17862090     0.13700
H46         H  0.06857587  0.20283265  0.18953048     0.16300
C47         C  0.47576216  0.19560100  0.19524540    -0.31300
H48         H  0.44695047  0.18626549  0.18596504     0.16300
H49         H  0.44276929  0.21272765  0.32522369     0.16300
H50         H  0.05829604  0.37693768  0.26378916     0.16400
H51         H  0.06467332  0.22178886  0.33037355     0.16300
C52         C  0.03715556  0.74820737  0.25336651     0.30200
C53         C  0.45765326  0.74778684  0.24976791     0.30200
C54         C  0.01845848  0.69426968  0.25736627    -0.06000
C55         C  0.01635660  0.77869102  0.28181246    -0.06800
C56         C  0.01768157  0.76957884  0.21995169    -0.06700
C57         C  0.47805228  0.69415048  0.25346315    -0.06000
C58         C  0.47625237  0.77795376  0.27958506    -0.06800
C59         C  0.47731210  0.76879030  0.21740142    -0.06700
C60         C  0.46715271  0.64306733  0.25319750    -0.32100
N61         N  0.99896702  0.61243367  0.25987956     0.14500
C62         C  0.03037278  0.64298931  0.26262967    -0.32100
H63         H  0.05972773  0.62865013  0.26674351     0.16400
C64         C  0.46289459  0.80000183  0.30921873    -0.31000
N65         N  0.99333857  0.81625808  0.32911561     0.13200
C66         C  0.02606854  0.80174000  0.31297060    -0.31000
C67         C  0.46655087  0.78749054  0.18476178    -0.31300
N68         N  0.99912640  0.80210384  0.16876504     0.13700
H69         H  0.43750462  0.79219119  0.17400418     0.16300
C70         C  0.03028733  0.79107058  0.18981981    -0.31300
H71         H  0.05986206  0.79993925  0.18413019     0.16300
H72         H  0.05502627  0.80702259  0.32346102     0.16300
H73         H  0.43824574  0.62884883  0.24867465     0.16400
H74         H  0.43300111  0.80286705  0.31633073     0.16300
C75         C  0.28722117  0.75214977  0.25013967     0.30200
C76         C  0.20794713  0.75155551  0.25018592     0.30200
C77         C  0.26674027  0.80599943  0.24893869    -0.06000
C78         C  0.26715028  0.72432682  0.22013099    -0.06800
C79         C  0.26926150  0.72826822  0.28246360    -0.06700
C80         C  0.22636278  0.80587965  0.24742744    -0.06000
C81         C  0.22707294  0.72416991  0.21959638    -0.06800
C82         C  0.22917504  0.72719851  0.28191190    -0.06700
C83         C  0.21411297  0.85712537  0.24254962    -0.32100
N84         N  0.24551676  0.88784009  0.24359368     0.14500
C85         C  0.27754426  0.85716088  0.24823852    -0.32100
H86         H  0.30669917  0.87139259  0.25064082     0.16400
C87         C  0.21571419  0.70163315  0.18869603    -0.31000
N88         N  0.24761230  0.68641876  0.17169406     0.13200
C89         C  0.27915544  0.70147867  0.19037349    -0.31000
C90         C  0.21841036  0.70366990  0.31209126    -0.31300
N91         N  0.25080977  0.69146052  0.33136066     0.13700
H92         H  0.18929808  0.69537434  0.31930029     0.16300
C93         C  0.28185207  0.70744763  0.31405062    -0.31300
H94         H  0.31144750  0.70312394  0.32368445     0.16300
H95         H  0.30870679  0.69609033  0.18284623     0.16300
H96         H  0.18464050  0.87123693  0.23913120     0.16400
H97         H  0.18633798  0.69605266  0.17929657     0.16300
C98         C  0.21276139  0.24394896  0.24920821     0.30600
C99         C  0.29205187  0.24196932  0.24794819     0.30200
C100        C  0.23223897  0.18965659  0.25253646    -0.06000
C101        C  0.23021443  0.26269760  0.21519385    -0.06800
C102        C  0.23397047  0.27480780  0.27687066    -0.06700
C103        C  0.27282955  0.18831555  0.25189902    -0.06000
C104        C  0.27049620  0.26120555  0.21443808    -0.06800
C105        C  0.27369813  0.27496084  0.27610751    -0.06700
C106        C  0.28309755  0.13812557  0.24247652    -0.32100
N107        N  0.25099279  0.10906622  0.23958863     0.14500
C108        C  0.21989620  0.14067892  0.24371096    -0.32100
H109        H  0.19030949  0.12882303  0.24024889     0.16400
C110        C  0.28016106  0.27713883  0.18175575    -0.31000
N111        N  0.24731109  0.29030088  0.16340085     0.13200
C112        C  0.21668249  0.28017603  0.18311591    -0.31000
C113        C  0.28627293  0.30544981  0.30328927    -0.31300
N114        N  0.25500107  0.32195879  0.32089083     0.13700
H115        H  0.31595585  0.31403648  0.31014378     0.16300
C116        C  0.22302143  0.30282853  0.30495581    -0.31300
H117        H  0.19383629  0.30807421  0.31363833     0.16300
H118        H  0.18684403  0.28744260  0.17510756     0.16300
H119        H  0.31198710  0.12369757  0.23772190     0.16400
H120        H  0.30900555  0.28158998  0.17248077     0.16300
C121        C  0.25649130  0.02604755  0.27127542    -0.01700
C122        C  0.25007735  0.05319530  0.23982495     0.08000
C123        C  0.24078445  0.02546962  0.20956629    -0.01800
C124        C  0.23869090  0.97075897  0.21075500    -0.01800
C125        C  0.24541191  0.94374324  0.24229353     0.08200
C126        C  0.25408095  0.97168972  0.27251527    -0.02000
Br127      Br  0.26156418  0.93503622  0.31580930    -0.00500
Br128      Br  0.26760740  0.06396283  0.31290991    -0.00600
Br129      Br  0.22783125  0.93226853  0.16932652    -0.00500
Br130      Br  0.23156106  0.06282004  0.16678267    -0.00500
C131        C  0.35144770  0.78589337  0.22839848    -0.01700
C132        C  0.33129383  0.74959034  0.24790052     0.08000
C133        C  0.35329728  0.70909211  0.26404292    -0.01800
C134        C  0.39299529  0.71355436  0.26965692    -0.01800
C135        C  0.41342899  0.74998785  0.25043716     0.08200
C136        C  0.39145229  0.78996610  0.23332620    -0.02000
Br137      Br  0.41129949  0.85839061  0.22782667    -0.00500
Br138      Br  0.32827944  0.81955898  0.18776825    -0.00600
Br139      Br  0.41439241  0.68066014  0.31128631    -0.00500
Br140      Br  0.33439607  0.63979911  0.26566739    -0.00500
C141        C  0.10256516  0.71049622  0.23519627    -0.01700
C142        C  0.08145680  0.74971299  0.25220965     0.08000
C143        C  0.10263365  0.79173179  0.26573678    -0.01800
C144        C  0.14287897  0.78780474  0.27007978    -0.01800
C145        C  0.16387395  0.74905508  0.25270126     0.08200
C146        C  0.14283852  0.70677860  0.23945524    -0.02000
Br147      Br  0.16540901  0.63771503  0.23770749    -0.00500
Br148      Br  0.07960809  0.66967163  0.19856694    -0.00600
Br149      Br  0.16611569  0.82752645  0.30711004    -0.00500
Br150      Br  0.08116782  0.86140762  0.26575622    -0.00500
C151        C  0.35499737  0.28804359  0.23449603    -0.01700
C152        C  0.33650992  0.24498235  0.24915068     0.08000
C153        C  0.36056293  0.20635884  0.26558485    -0.01800
C154        C  0.40062148  0.20566060  0.26112745    -0.01800
C155        C  0.41887329  0.24925252  0.24725375     0.08200
C156        C  0.39494831  0.28668946  0.22983570    -0.02000
Br157      Br  0.41307649  0.32484589  0.19074483    -0.00500
Br158      Br  0.32900916  0.35446699  0.22731581    -0.00600
Br159      Br  0.42775164  0.14011201  0.26745858    -0.00500
Br160      Br  0.34298223  0.16460910  0.30324436    -0.00500
C161        C  0.10798153  0.29468092  0.23640997    -0.01700
C162        C  0.08656318  0.25730840  0.25401339     0.08000
C163        C  0.10733445  0.21346616  0.26795942    -0.01800
C164        C  0.14769516  0.21291711  0.27096449    -0.01800
C165        C  0.16882496  0.24935948  0.25249065     0.08200
C166        C  0.14832699  0.29377316  0.23952562    -0.02000
Br167      Br  0.17293778  0.35903192  0.23371424    -0.00500
Br168      Br  0.08586285  0.33694540  0.19893925    -0.00600
Br169      Br  0.17111116  0.17205156  0.30853971    -0.00500
Br170      Br  0.08352811  0.14766009  0.27496447    -0.00500
C171        C  0.49615532  0.47416647  0.29074502    -0.01700
C172        C  0.99573195  0.44741385  0.25927271     0.08000
C173        C  0.99683916  0.47558212  0.22804702    -0.01800
C174        C  0.99843302  0.53002362  0.22837420    -0.01800
C175        C  0.99903290  0.55666013  0.25991241     0.08200
C176        C  0.49736585  0.52880514  0.29091477    -0.02000
Br177      Br  0.49630665  0.56590856  0.33371300    -0.00500
Br178      Br  0.49617227  0.43505586  0.33322824    -0.00600
Br179      Br  0.99995382  0.56871730  0.18577277    -0.00500
Br180      Br  0.99713061  0.43894882  0.18495327    -0.00500
C181        C  0.01982647  0.86191454  0.41883396    -0.01700
C182        C  0.99368800  0.90432292  0.42283497     0.08000
C183        C  0.46625297  0.91493911  0.39582302    -0.01800
C184        C  0.46665349  0.88692780  0.36466333    -0.01800
C185        C  0.99158256  0.84407509  0.36141276     0.08200
C186        C  0.01656710  0.82986050  0.38963783    -0.02000
Br187      Br  0.04431897  0.76410141  0.38978415    -0.00500
Br188      Br  0.06137018  0.84704734  0.45224574    -0.00600
Br189      Br  0.43490772  0.91212060  0.32572692    -0.00500
Br190      Br  0.42883239  0.97141996  0.39943054    -0.00500
C191        C  0.00877970  0.84573234  0.07655757    -0.01700
C192        C  0.99820623  0.89870040  0.07885846     0.08000
C193        C  0.48718758  0.91927283  0.11107467    -0.01800
C194        C  0.49013956  0.88776350  0.14079363    -0.01800
C195        C  0.99938405  0.83432951  0.13832369     0.08200
C196        C  0.00864871  0.81340378  0.10617273    -0.02000
Br197      Br  0.02161032  0.74072325  0.10331849    -0.00500
Br198      Br  0.02125967  0.81693337  0.03266236    -0.00600
Br199      Br  0.48608909  0.91828924  0.18571029    -0.00500
Br200      Br  0.46855631  0.98978931  0.11504238    -0.00500
C201        C  0.00602724  0.16669235  0.43093931    -0.01700
C202        C  0.00897937  0.11250061  0.42662999     0.08000
C203        C  0.51270457  0.09250174  0.39326704    -0.01800
C204        C  0.50897720  0.12550972  0.36438135    -0.01800
C205        C  0.00549039  0.17924407  0.36837115     0.08200
C206        C  0.00560119  0.20010158  0.40180810    -0.02000
Br207      Br  0.00610687  0.27412394  0.40718920    -0.00500
Br208      Br  0.00426500  0.19505408  0.47653545    -0.00600
Br209      Br  0.50792258  0.09637318  0.31886912    -0.00500
Br210      Br  0.52460631  0.02023098  0.38658628    -0.00500
C211        C  0.98748018  0.14594773  0.08650514    -0.01700
C212        C  0.01273148  0.10262409  0.08273504     0.08000
C213        C  0.53846006  0.08880727  0.11060558    -0.01800
C214        C  0.53720746  0.11531058  0.14225997    -0.01800
C215        C  0.01162727  0.15757361  0.14590543     0.08200
C216        C  0.98842086  0.17458558  0.11726491    -0.02000
Br217      Br  0.95994486  0.23958260  0.11925189    -0.00500
Br218      Br  0.95074779  0.16689832  0.05016064    -0.00600
Br219      Br  0.56916447  0.09059147  0.18115087    -0.00500
Br220      Br  0.57378276  0.03000444  0.10735917    -0.00500
C221        C  0.26759433  0.61065165  0.36317956    -0.01700
C222        C  0.25257613  0.66170717  0.36299652     0.08000
C223        C  0.24042887  0.68360795  0.39402813    -0.01800
C224        C  0.24337944  0.65440965  0.42503550    -0.01800
C225        C  0.25863437  0.60325338  0.42513940     0.08200
C226        C  0.27277473  0.58274895  0.39430935    -0.02000
Br227      Br  0.29973422  0.51656362  0.39417458    -0.00500
Br228      Br  0.27582983  0.57613080  0.32026003    -0.00600
Br229      Br  0.23005422  0.68620155  0.46766166    -0.00500
Br230      Br  0.21883730  0.75300519  0.39352158    -0.00500
C231        C  0.22281632  0.63743677  0.08256959    -0.01700
C232        C  0.24750634  0.59313359  0.08086592     0.08000
C233        C  0.27195518  0.57986262  0.10985481    -0.01800
C234        C  0.27055003  0.60932610  0.14018491    -0.01800
C235        C  0.24808322  0.65559363  0.14081282     0.08200
C236        C  0.22510174  0.67020909  0.11144876    -0.02000
Br237      Br  0.19866035  0.73685803  0.10979077    -0.00500
Br238      Br  0.18498609  0.65384554  0.04622864    -0.00600
Br239      Br  0.29677908  0.58302210  0.18176624    -0.00500
Br240      Br  0.30573591  0.51902186  0.10984345    -0.00500
C241        C  0.27540029  0.36050913  0.41315680    -0.01700
C242        C  0.24959114  0.40330503  0.41644297     0.08000
C243        C  0.22687571  0.42031408  0.38720477    -0.01800
C244        C  0.23037375  0.39513552  0.35531714    -0.01800
C245        C  0.25489248  0.35103059  0.35255272     0.08200
C246        C  0.27704863  0.33357951  0.38176353    -0.02000
Br247      Br  0.30796671  0.27059687  0.37973095    -0.00500
Br248      Br  0.30865067  0.33733955  0.45144759    -0.00600
Br249      Br  0.20325316  0.42346864  0.31481686    -0.00500
Br250      Br  0.19281323  0.48065717  0.38935162    -0.00500
C251        C  0.22925465  0.40532514  0.10510813    -0.01700
C252        C  0.23940452  0.38573335  0.07280715     0.08000
C253        C  0.25128605  0.33319560  0.07038817    -0.01800
C254        C  0.25356268  0.30110564  0.10020368    -0.01800
C255        C  0.24545454  0.32202913  0.13262849     0.08200
C256        C  0.23530731  0.37487715  0.13499225    -0.02000
Br257      Br  0.23627610  0.40797813  0.17917675    -0.00500
Br258      Br  0.20637514  0.47366759  0.10892908    -0.00600
Br259      Br  0.26920123  0.22927959  0.09730702    -0.00500
Br260      Br  0.26207479  0.30443418  0.02622070    -0.00500
O261        O  0.21762337  0.54716902  0.53504883    -0.74200
O262        O  0.21647555  0.45151449  0.95934338    -0.74300
O263        O  0.21246520  0.44329124  0.53010011    -0.74300
O264        O  0.22013432  0.55556063  0.96438463    -0.74400
O265        O  0.28434475  0.54876937  0.96928151    -0.74300
O266        O  0.27666635  0.43558531  0.53469667    -0.74300
O267        O  0.28059220  0.44553280  0.96453988    -0.74300
O268        O  0.28171106  0.54012694  0.53927268    -0.74300
Ni269      Ni  0.21493370  0.49950084  0.49734851     1.25400
Ni270      Ni  0.28223222  0.49293447  0.00218962     1.25400
C271        C  0.24982147  0.55889226  0.54994321     0.87900
C272        C  0.24890428  0.43452736  0.94856818     0.87900
C273        C  0.24312053  0.42193195  0.54376708     0.87900
C274        C  0.25362730  0.56901148  0.95500883     0.88100
O275        O  0.03884745  0.05376709  0.96827060    -0.74200
O276        O  0.03212207  0.94600461  0.53689625    -0.74300
O277        O  0.03127670  0.94999284  0.96593942    -0.74300
O278        O  0.03994882  0.05010486  0.53876231    -0.74400
O279        O  0.47644924  0.05922003  0.53835074    -0.74300
O280        O  0.46674392  0.95941926  0.96613112    -0.74300
O281        O  0.46885048  0.95605716  0.53642544    -0.74300
O282        O  0.47434233  0.06395490  0.96770035    -0.74300
Ni283      Ni  0.03756619  0.99971174  0.50256310     1.25400
Ni284      Ni  0.46963693  0.00990321  0.50200778     1.25400
C285        C  0.00762053  0.07568155  0.95624085     0.87900
C286        C  0.99918062  0.93487695  0.54874508     0.87900
C287        C  0.99782736  0.93869727  0.95333693     0.87900
C288        C  0.00946226  0.07014395  0.55141685     0.88100
C289        C  0.46295123  0.25507234  0.75086936     0.30200
C290        C  0.04221594  0.26021510  0.75475163     0.30200
C291        C  0.47991891  0.31024870  0.74750225    -0.06000
C292        C  0.48278031  0.23790695  0.78570295    -0.06800
C293        C  0.48499705  0.22361323  0.72423691    -0.06700
C294        C  0.02043653  0.31254091  0.74969789    -0.06000
C295        C  0.02305722  0.24082172  0.78771645    -0.06800
C296        C  0.02468452  0.22733012  0.72608157    -0.06700
C297        C  0.02957565  0.36275171  0.75818567    -0.32100
N298        N  0.99675472  0.39182571  0.75876786     0.14500
C299        C  0.46639757  0.36010005  0.75428831    -0.32100
H300        H  0.43656842  0.37243968  0.75673554     0.16400
C301        C  0.03508983  0.22603451  0.82076022    -0.31000
N302        N  0.00380458  0.21258096  0.83855534     0.13200
C303        C  0.47161214  0.22082654  0.81769591    -0.31000
C304        C  0.03878491  0.20391191  0.69727652    -0.31300
N305        N  0.00883668  0.18390094  0.67874459     0.13700
H306        H  0.06852643  0.20336292  0.68962891     0.16300
C307        C  0.47577732  0.19539468  0.69510726    -0.31300
H308        H  0.44698239  0.18605621  0.68578450     0.16300
H309        H  0.44259265  0.21239582  0.82495461     0.16300
H310        H  0.05808768  0.37721464  0.76402616     0.16400
H311        H  0.06468489  0.22210354  0.83059278     0.16300
C312        C  0.03703811  0.74813631  0.75282347     0.30200
C313        C  0.45780811  0.74780893  0.74997600     0.30200
C314        C  0.01836574  0.69418950  0.75667481    -0.06000
C315        C  0.01637691  0.77832789  0.78149640    -0.06800
C316        C  0.01743686  0.76979385  0.71956595    -0.06700
C317        C  0.47819856  0.69418011  0.75387607    -0.06000
C318        C  0.47631774  0.77817906  0.77973416    -0.06800
C319        C  0.47759386  0.76864811  0.71760439    -0.06700
C320        C  0.46730198  0.64308292  0.75356519    -0.32100
N321        N  0.99886520  0.61241946  0.75928794     0.14500
C322        C  0.03029533  0.64293268  0.76190370    -0.32100
H323        H  0.05965527  0.62859121  0.76597364     0.16400
C324        C  0.46286000  0.80046210  0.80925157    -0.31000
N325        N  0.99352571  0.81548485  0.82902008     0.13200
C326        C  0.02620647  0.80107373  0.81274422    -0.31000
C327        C  0.46693851  0.78748719  0.68496470    -0.31300
N328        N  0.99871103  0.80231856  0.66845741     0.13700
H329        H  0.43791370  0.79234697  0.67418443     0.16300
C330        C  0.02994068  0.79132898  0.68942140    -0.31300
H331        H  0.05948973  0.80020689  0.68364446     0.16300
H332        H  0.05520479  0.80631135  0.82316259     0.16300
H333        H  0.43841330  0.62888091  0.74890245     0.16400
H334        H  0.43294419  0.80335898  0.81629396     0.16300
C335        C  0.28719488  0.75270429  0.74993400     0.30200
C336        C  0.20785915  0.75176827  0.74916581     0.30200
C337        C  0.26655539  0.80644124  0.74811364    -0.06000
C338        C  0.26757266  0.72435606  0.71995425    -0.06800
C339        C  0.26885278  0.72918961  0.78220566    -0.06700
C340        C  0.22618888  0.80609034  0.74615953    -0.06000
C341        C  0.22747812  0.72393617  0.71901609    -0.06800
C342        C  0.22875581  0.72798888  0.78124232    -0.06700
C343        C  0.21380556  0.85719340  0.74091640    -0.32100
N344        N  0.24507461  0.88811792  0.74220958     0.14500
C345        C  0.27716913  0.85767526  0.74732393    -0.32100
H346        H  0.30623284  0.87212094  0.75014826     0.16400
C347        C  0.21663905  0.70115412  0.68808206    -0.31000
N348        N  0.24884320  0.68613157  0.67145674     0.13200
C349        C  0.28007144  0.70156232  0.69038108    -0.31000
C350        C  0.21762648  0.70445786  0.81129363    -0.31300
N351        N  0.24979096  0.69235070  0.83090837     0.13700
H352        H  0.18842605  0.69596345  0.81814140     0.16300
C353        C  0.28105813  0.70837134  0.81390618    -0.31300
H354        H  0.31055530  0.70399464  0.82379020     0.16300
H355        H  0.30974328  0.69656812  0.68310274     0.16300
H356        H  0.18430606  0.87110346  0.73728175     0.16400
H357        H  0.18740730  0.69541605  0.67835956     0.16300
C358        C  0.21272732  0.24436971  0.74970032     0.30600
C359        C  0.29199533  0.24169254  0.74814222     0.30200
C360        C  0.23199604  0.18996079  0.75331658    -0.06000
C361        C  0.23008668  0.26246943  0.71550147    -0.06800
C362        C  0.23420330  0.27551582  0.77705516    -0.06700
C363        C  0.27260105  0.18826713  0.75253380    -0.06000
C364        C  0.27035651  0.26060614  0.71460412    -0.06800
C365        C  0.27393722  0.27516750  0.77617431    -0.06700
C366        C  0.28255725  0.13806418  0.74290669    -0.32100
N367        N  0.25030693  0.10931973  0.74005421     0.14500
C368        C  0.21939273  0.14114874  0.74436772    -0.32100
H369        H  0.18974121  0.12959434  0.74084673     0.16400
C370        C  0.27996643  0.27620249  0.68185177    -0.31000
N371        N  0.24710597  0.28953772  0.66357291     0.13200
C372        C  0.21650268  0.27986963  0.68342571    -0.31000
C373        C  0.28687238  0.30572586  0.80317320    -0.31300
N374        N  0.25578224  0.32300269  0.82068219     0.13700
H375        H  0.31664978  0.31382177  0.80999795     0.16300
C376        C  0.22356458  0.30423660  0.80493571    -0.31300
H377        H  0.19444859  0.31023538  0.81362196     0.16300
H378        H  0.18667505  0.28748216  0.67552639     0.16300
H379        H  0.31133154  0.12345972  0.73788131     0.16400
H380        H  0.30880086  0.28044284  0.67250379     0.16300
C381        C  0.25540196  0.02579288  0.77111746    -0.01700
C382        C  0.24912827  0.05349069  0.73986917     0.08000
C383        C  0.23975513  0.02636925  0.70938585    -0.01800
C384        C  0.23779131  0.97163738  0.71008278    -0.01800
C385        C  0.24467320  0.94403006  0.74137727     0.08200
C386        C  0.25301719  0.97142935  0.77189223    -0.02000
Br387      Br  0.25985619  0.93402312  0.81496704    -0.00500
Br388      Br  0.26625605  0.06298017  0.81310415    -0.00600
Br389      Br  0.22672054  0.93400251  0.66834074    -0.00500
Br390      Br  0.23008489  0.06461935  0.66701052    -0.00500
C391        C  0.35166898  0.78635660  0.72857168    -0.01700
C392        C  0.33133950  0.75020329  0.74806482     0.08000
C393        C  0.35323685  0.70957664  0.76422314    -0.01800
C394        C  0.39298730  0.71375499  0.76978673    -0.01800
C395        C  0.41355414  0.75006465  0.75056946     0.08200
C396        C  0.39168500  0.79019811  0.73353784    -0.02000
Br397      Br  0.41171377  0.85852654  0.72819951    -0.00500
Br398      Br  0.32886923  0.81978192  0.68770299    -0.00600
Br399      Br  0.41429366  0.68078270  0.81142352    -0.00500
Br400      Br  0.33408650  0.64043630  0.76611241    -0.00500
C401        C  0.10233804  0.71070154  0.73414689    -0.01700
C402        C  0.08129678  0.74970169  0.75142344     0.08000
C403        C  0.10243488  0.79187387  0.76470554    -0.01800
C404        C  0.14270784  0.78816069  0.76880577    -0.01800
C405        C  0.16372265  0.74937631  0.75140585     0.08200
C406        C  0.14264812  0.70711043  0.73813526    -0.02000
Br407      Br  0.16511283  0.63800949  0.73624149    -0.00500
Br408      Br  0.07912213  0.66996963  0.69758696    -0.00600
Br409      Br  0.16597028  0.82848896  0.80552533    -0.00500
Br410      Br  0.08057665  0.86134627  0.76502992    -0.00500
C411        C  0.35487017  0.28774919  0.73447631    -0.01700
C412        C  0.33645553  0.24461091  0.74914221     0.08000
C413        C  0.36057805  0.20596283  0.76546075    -0.01800
C414        C  0.40061616  0.20535477  0.76089575    -0.01800
C415        C  0.41880777  0.24906089  0.74709470     0.08200
C416        C  0.39482136  0.28653545  0.72978886    -0.02000
Br417      Br  0.41289522  0.32504618  0.69082287    -0.00500
Br418      Br  0.32872782  0.35404854  0.72714084    -0.00600
Br419      Br  0.42778988  0.13981127  0.76702534    -0.00500
Br420      Br  0.34318165  0.16408870  0.80315456    -0.00500
C421        C  0.10795778  0.29514244  0.73677062    -0.01700
C422        C  0.08652450  0.25767932  0.75428500     0.08000
C423        C  0.10731267  0.21392327  0.76830891    -0.01800
C424        C  0.14764640  0.21354646  0.77152030    -0.01800
C425        C  0.16880914  0.24999342  0.75309718     0.08200
C426        C  0.14831150  0.29430674  0.73998628    -0.02000
Br427      Br  0.17295465  0.35948413  0.73402699    -0.00500
Br428      Br  0.08587292  0.33744692  0.69930455    -0.00600
Br429      Br  0.17090927  0.17298487  0.80930920    -0.00500
Br430      Br  0.08364513  0.14798405  0.77506945    -0.00500
C431        C  0.49633515  0.47392100  0.79086659    -0.01700
C432        C  0.99546804  0.44750565  0.75923364     0.08000
C433        C  0.99666330  0.47541467  0.72791418    -0.01800
C434        C  0.99834542  0.52983319  0.72806510    -0.01800
C435        C  0.99888834  0.55668094  0.75951144     0.08200
C436        C  0.49757249  0.52856931  0.79116595    -0.02000
Br437      Br  0.49657030  0.56542801  0.83405886    -0.00500
Br438      Br  0.49635132  0.43458488  0.83325820    -0.00600
Br439      Br  0.00014603  0.56821323  0.68536058    -0.00500
Br440      Br  0.99701128  0.43846656  0.68494235    -0.00500
C441        C  0.02039484  0.86133639  0.91861008    -0.01700
C442        C  0.99435487  0.90384634  0.92264356     0.08000
C443        C  0.46568051  0.91513601  0.89593260    -0.01800
C444        C  0.46634991  0.88733902  0.86470396    -0.01800
C445        C  0.99185891  0.84333677  0.86131752     0.08200
C446        C  0.01688800  0.82911941  0.88950268    -0.02000
Br447      Br  0.04422107  0.76306458  0.88974240    -0.00500
Br448      Br  0.06215533  0.84659999  0.95180811    -0.00600
Br449      Br  0.43493036  0.91277440  0.82563350    -0.00500
Br450      Br  0.42803423  0.97134414  0.89954950    -0.00500
C451        C  0.00730940  0.84614307  0.57623133    -0.01700
C452        C  0.99727211  0.89923611  0.57879177     0.08000
C453        C  0.48763255  0.91895973  0.61103102    -0.01800
C454        C  0.49045429  0.88756694  0.64082189    -0.01800
C455        C  0.99882369  0.83465999  0.63809526     0.08200
C456        C  0.00746315  0.81373604  0.60580113    -0.02000
Br457      Br  0.02006851  0.74098244  0.60270543    -0.00500
Br458      Br  0.01848693  0.81729759  0.53204341    -0.00600
Br459      Br  0.48592605  0.91825487  0.68563480    -0.00500
Br460      Br  0.46864069  0.98934889  0.61477943    -0.00500
C461        C  0.00612067  0.16654872  0.93114972    -0.01700
C462        C  0.00917188  0.11237444  0.92672691     0.08000
C463        C  0.51227556  0.09228050  0.89320363    -0.01800
C464        C  0.50857313  0.12519609  0.86427099    -0.01800
C465        C  0.00557376  0.17942175  0.86860007     0.08200
C466        C  0.00560786  0.20011399  0.90208514    -0.02000
Br467      Br  0.00588508  0.27412320  0.90762713    -0.00500
Br468      Br  0.00437793  0.19469806  0.97680182    -0.00600
Br469      Br  0.50741422  0.09591229  0.81879603    -0.00500
Br470      Br  0.52405191  0.01995670  0.88662177    -0.00500
C471        C  0.98730729  0.14651512  0.58660853    -0.01700
C472        C  0.01251948  0.10316792  0.58279552     0.08000
C473        C  0.53868274  0.08845070  0.61064364    -0.01800
C474        C  0.53732960  0.11493302  0.64229964    -0.01800
C475        C  0.01156137  0.15807547  0.64599209     0.08200
C476        C  0.98827503  0.17508831  0.61739658    -0.02000
Br477      Br  0.95969342  0.23998399  0.61948059    -0.00500
Br478      Br  0.95065304  0.16764305  0.55023787    -0.00600
Br479      Br  0.56912687  0.09015172  0.68127160    -0.00500
Br480      Br  0.57395803  0.02958810  0.60746658    -0.00500
C481        C  0.26691380  0.61192738  0.86304769    -0.01700
C482        C  0.25114795  0.66258569  0.86255389     0.08000
C483        C  0.23759094  0.68394355  0.89327035    -0.01800
C484        C  0.23966861  0.65445291  0.92419064    -0.01800
C485        C  0.25659545  0.60418093  0.92476457     0.08200
C486        C  0.27227945  0.58444530  0.89431936    -0.02000
Br487      Br  0.30135988  0.51980011  0.89476740    -0.00500
Br488      Br  0.27531024  0.57691932  0.82033006    -0.00600
Br489      Br  0.22197600  0.68437616  0.96610116    -0.00500
Br490      Br  0.21543645  0.75303153  0.89245689    -0.00500
C491        C  0.22571617  0.63739522  0.58203386    -0.01700
C492        C  0.25023845  0.59288188  0.58076503     0.08000
C493        C  0.27429132  0.57960383  0.60997638    -0.01800
C494        C  0.27270764  0.60936076  0.64016216    -0.01800
C495        C  0.24990397  0.65538663  0.64059520     0.08200
C496        C  0.22720162  0.66988238  0.61104470    -0.02000
Br497      Br  0.19961223  0.73575362  0.60945424    -0.00500
Br498      Br  0.18926365  0.65462538  0.54474497    -0.00600
Br499      Br  0.29915685  0.58369891  0.68181962    -0.00500
Br500      Br  0.30755186  0.51823297  0.61046709    -0.00500
C501        C  0.27557954  0.36143441  0.91298405    -0.01700
C502        C  0.25022376  0.40478854  0.91590226     0.08000
C503        C  0.22868268  0.42275105  0.88624412    -0.01800
C504        C  0.23253583  0.39755597  0.85441390    -0.01800
C505        C  0.25601420  0.35242898  0.85215887     0.08200
C506        C  0.27730419  0.33432350  0.88166880    -0.02000
Br507      Br  0.30704101  0.27030481  0.88006051    -0.00500
Br508      Br  0.30823461  0.33799338  0.95156322    -0.00600
Br509      Br  0.20745821  0.42698558  0.81328465    -0.00500
Br510      Br  0.19583611  0.48429227  0.88785831    -0.00500
C511        C  0.22991668  0.40474449  0.60529389    -0.01700
C512        C  0.24011203  0.38504181  0.57304118     0.08000
C513        C  0.25163028  0.33236741  0.57061127    -0.01800
C514        C  0.25343677  0.30020866  0.60039250    -0.01800
C515        C  0.24534974  0.32122730  0.63279579     0.08200
C516        C  0.23555521  0.37418992  0.63516257    -0.02000
Br517      Br  0.23638849  0.40725142  0.67935203    -0.00500
Br518      Br  0.20772338  0.47351010  0.60908563    -0.00600
Br519      Br  0.26826931  0.22809266  0.59747520    -0.00500
Br520      Br  0.26264657  0.30358019  0.52648639    -0.00500
O521        O  0.71739954  0.54717923  0.03505054    -0.74200
O522        O  0.71650428  0.45142006  0.45939692    -0.74300
O523        O  0.71231899  0.44328174  0.03009890    -0.74300
O524        O  0.72020874  0.55547556  0.46444730    -0.74400
O525        O  0.78441951  0.54864880  0.46932120    -0.74300
O526        O  0.77652349  0.43566633  0.03470543    -0.74300
O527        O  0.78062106  0.44540893  0.46455092    -0.74300
O528        O  0.78148965  0.54021522  0.03927019    -0.74300
Ni529      Ni  0.71475368  0.49950341  0.99734147     1.25400
Ni530      Ni  0.78230650  0.49278919  0.50221120     1.25400
C531        C  0.74959022  0.55893290  0.04994981     0.87900
C532        C  0.74891706  0.43441077  0.44860288     0.87900
C533        C  0.74298784  0.42196533  0.04377402     0.87900
C534        C  0.75370153  0.56892391  0.45507035     0.88100
O535        O  0.53890129  0.05386234  0.46829604    -0.74200
O536        O  0.53211697  0.94587445  0.03689712    -0.74300
O537        O  0.53129367  0.95009812  0.46596249    -0.74300
O538        O  0.53990652  0.04998435  0.03875835    -0.74400
O539        O  0.97639628  0.05909055  0.03832582    -0.74300
O540        O  0.96675327  0.95958991  0.46612688    -0.74300
O541        O  0.96883383  0.95591723  0.03640195    -0.74300
O542        O  0.97439159  0.06411716  0.46769755    -0.74300
Ni543      Ni  0.53754130  0.99958556  0.00256205     1.25400
Ni544      Ni  0.96960047  0.00976583  0.00198449     1.25400
C545        C  0.50768111  0.07578790  0.45626081     0.87900
C546        C  0.49917893  0.93472778  0.04874559     0.87900
C547        C  0.49784092  0.93882236  0.45335789     0.87900
C548        C  0.50941495  0.07000842  0.05141344     0.88100
C549        C  0.96300283  0.25509637  0.25082598     0.30200
C550        C  0.54226925  0.26018291  0.25470075     0.30200
C551        C  0.97997868  0.31026444  0.24743209    -0.06000
C552        C  0.98284818  0.23794734  0.28565537    -0.06800
C553        C  0.98502388  0.22361090  0.22419075    -0.06700
C554        C  0.52050222  0.31252314  0.24965243    -0.06000
C555        C  0.52312112  0.24080160  0.28767441    -0.06800
C556        C  0.52471532  0.22730381  0.22603688    -0.06700
C557        C  0.52965369  0.36272973  0.25815048    -0.32100
N558        N  0.49683781  0.39181383  0.25875709     0.14500
C559        C  0.96647109  0.36011691  0.25423555    -0.32100
H560        H  0.93664670  0.37245976  0.25670939     0.16400
C561        C  0.53516501  0.22601506  0.32071583    -0.31000
N562        N  0.50388317  0.21259424  0.33852729     0.13200
C563        C  0.97169417  0.22088756  0.31765778    -0.31000
C564        C  0.53879314  0.20385673  0.19723180    -0.31300
N565        N  0.50882959  0.18384479  0.17871913     0.13700
H566        H  0.56853070  0.20328319  0.18957302     0.16300
C567        C  0.97577803  0.19537442  0.19507481    -0.31300
H568        H  0.94697515  0.18603732  0.18577274     0.16300
H569        H  0.94267655  0.21247765  0.32493194     0.16300
H570        H  0.55817033  0.37717966  0.26398624     0.16400
H571        H  0.56476325  0.22206822  0.33053723     0.16300
C572        C  0.53700606  0.74815546  0.25289028     0.30200
C573        C  0.95778035  0.74781999  0.25000867     0.30200
C574        C  0.51833850  0.69420701  0.25676485    -0.06000
C575        C  0.51633533  0.77837770  0.28154346    -0.06800
C576        C  0.51740820  0.76977388  0.21961986    -0.06700
C577        C  0.97818053  0.69420135  0.25393683    -0.06000
C578        C  0.97627764  0.77823451  0.27975525    -0.06800
C579        C  0.97757233  0.76862807  0.21763005    -0.06700
C580        C  0.96729238  0.64309902  0.25361734    -0.32100
N581        N  0.49884987  0.61242617  0.25937289     0.14500
C582        C  0.53027433  0.64295072  0.26199269    -0.32100
H583        H  0.55963693  0.62861607  0.26605513     0.16400
C584        C  0.96281385  0.80055335  0.30926167    -0.31000
N585        N  0.49347875  0.81556154  0.32905667     0.13200
C586        C  0.52615987  0.80114379  0.31278461    -0.31000
C587        C  0.96692164  0.78741750  0.18497652    -0.31300
N588        N  0.49868754  0.80224439  0.16849425     0.13700
H589        H  0.93789901  0.79224718  0.17418662     0.16300
C590        C  0.52991441  0.79128360  0.18946813    -0.31300
H591        H  0.55946307  0.80016564  0.18369267     0.16300
H592        H  0.55515710  0.80638416  0.32320442     0.16300
H593        H  0.93840830  0.62889050  0.24893754     0.16400
H594        H  0.93289749  0.80345060  0.31630140     0.16300
C595        C  0.78716722  0.75260653  0.24998983     0.30200
C596        C  0.70783134  0.75174317  0.24925139     0.30200
C597        C  0.76655432  0.80636187  0.24819636    -0.06000
C598        C  0.76751642  0.72429280  0.22000837    -0.06800
C599        C  0.76883049  0.72908787  0.28226302    -0.06700
C600        C  0.72618676  0.80605277  0.24626008    -0.06000
C601        C  0.72742178  0.72392181  0.21908116    -0.06800
C602        C  0.72873183  0.72792362  0.28131573    -0.06700
C603        C  0.71383367  0.85717170  0.24102440    -0.32100
N604        N  0.74512433  0.88806116  0.24229947     0.14500
C605        C  0.77720185  0.85758202  0.24739672    -0.32100
H606        H  0.80627855  0.87199210  0.25019046     0.16400
C607        C  0.71655384  0.70119078  0.18813521    -0.31000
N608        N  0.74874120  0.68613085  0.17149833     0.13200
C609        C  0.77998807  0.70149624  0.19042506    -0.31000
C610        C  0.71760619  0.70441820  0.31137890    -0.31300
N611        N  0.74977502  0.69229386  0.33098466     0.13700
H612        H  0.68840531  0.69595674  0.31824144     0.16300
C613        C  0.78104057  0.70827810  0.31396441    -0.31300
H614        H  0.81054024  0.70388634  0.32383960     0.16300
H615        H  0.80965411  0.69645718  0.18314096     0.16300
H616        H  0.68434161  0.87111373  0.23739425     0.16400
H617        H  0.68731397  0.69550623  0.17841451     0.16300
C618        C  0.71278193  0.24429596  0.24967987     0.30600
C619        C  0.79205070  0.24168098  0.24814074     0.30200
C620        C  0.73207034  0.18989819  0.25329448    -0.06000
C621        C  0.73014537  0.26241644  0.21548812    -0.06800
C622        C  0.73423659  0.27544646  0.27704612    -0.06700
C623        C  0.77267634  0.18823622  0.25252034    -0.06000
C624        C  0.77041536  0.26059029  0.21459978    -0.06800
C625        C  0.77396965  0.27513733  0.27617174    -0.06700
C626        C  0.78265685  0.13803984  0.24289333    -0.32100
N627        N  0.75041991  0.10926832  0.24003184     0.14500
C628        C  0.71949131  0.14107580  0.24434026    -0.32100
H629        H  0.68984563  0.12949827  0.24081537     0.16400
C630        C  0.78002585  0.27621795  0.18185272    -0.31000
N631        N  0.74716231  0.28952546  0.16356876     0.13200
C632        C  0.71656048  0.27981405  0.18341264    -0.31000
C633        C  0.78688069  0.30570615  0.30317459    -0.31300
N634        N  0.75577920  0.32293463  0.32068916     0.13700
H635        H  0.81665192  0.31384021  0.30999759     0.16300
C636        C  0.72357702  0.30413427  0.30493519    -0.31300
H637        H  0.69445691  0.31008201  0.31362299     0.16300
H638        H  0.68673102  0.28740001  0.17550873     0.16300
H639        H  0.81143936  0.12345683  0.23787851     0.16400
H640        H  0.80885984  0.28049623  0.17251225     0.16300
C641        C  0.75553701  0.02576705  0.27112820    -0.01700
C642        C  0.74926294  0.05343461  0.23986764     0.08000
C643        C  0.73989716  0.02627750  0.20939607    -0.01800
C644        C  0.73791200  0.97154671  0.21012320    -0.01800
C645        C  0.74476478  0.94397379  0.24143486     0.08200
C646        C  0.75313118  0.97140530  0.27193230    -0.02000
Br647      Br  0.75997788  0.93404690  0.31502419    -0.00500
Br648      Br  0.76642400  0.06299360  0.31309265    -0.00600
Br649      Br  0.72685652  0.93386097  0.16839888    -0.00500
Br650      Br  0.73027479  0.06447373  0.16699301    -0.00500
C651        C  0.85161743  0.78621942  0.22855735    -0.01700
C652        C  0.83130928  0.75010189  0.24809664     0.08000
C653        C  0.85322447  0.70952667  0.26428861    -0.01800
C654        C  0.89297320  0.71374734  0.26984524    -0.01800
C655        C  0.91352319  0.75003984  0.25059554     0.08200
C656        C  0.89163152  0.79010740  0.23351458    -0.02000
Br657      Br  0.91160796  0.85845165  0.22812405    -0.00500
Br658      Br  0.82877016  0.81959451  0.18768895    -0.00600
Br659      Br  0.91430287  0.68082163  0.31148901    -0.00500
Br660      Br  0.83411815  0.64036516  0.26616616    -0.00500
C661        C  0.60230598  0.71071243  0.23422480    -0.01700
C662        C  0.58126689  0.74972033  0.25149586     0.08000
C663        C  0.60241165  0.79188268  0.26478725    -0.01800
C664        C  0.64268463  0.78815571  0.26889382    -0.01800
C665        C  0.66369459  0.74936661  0.25149598     0.08200
C666        C  0.64261456  0.70710767  0.23822199    -0.02000
Br667      Br  0.66507407  0.63800429  0.23631296    -0.00500
Br668      Br  0.57908978  0.66997587  0.19766694    -0.00600
Br669      Br  0.66595305  0.82846702  0.30561841    -0.00500
Br670      Br  0.58057548  0.86136695  0.26509662    -0.00500
C671        C  0.85491336  0.28777426  0.23448843    -0.01700
C672        C  0.83650927  0.24462580  0.24914987     0.08000
C673        C  0.86064018  0.20598108  0.26546050    -0.01800
C674        C  0.90067613  0.20538042  0.26088476    -0.01800
C675        C  0.91885796  0.24909012  0.24707629     0.08200
C676        C  0.89486115  0.28656794  0.22978510    -0.02000
Br677      Br  0.91290566  0.32507585  0.19080604    -0.00500
Br678      Br  0.82876125  0.35407065  0.22717869    -0.00600
Br679      Br  0.92785957  0.13984319  0.26701888    -0.00500
Br680      Br  0.84325714  0.16410488  0.30315811    -0.00500
C681        C  0.60801842  0.29508123  0.23672375    -0.01700
C682        C  0.58657627  0.25761730  0.25422466     0.08000
C683        C  0.60735283  0.21384537  0.26823941    -0.01800
C684        C  0.64768678  0.21345336  0.27146007    -0.01800
C685        C  0.66886081  0.24991184  0.25305794     0.08200
C686        C  0.64837099  0.29423670  0.23995087    -0.02000
Br687      Br  0.67301964  0.35941466  0.23400269    -0.00500
Br688      Br  0.58594500  0.33739544  0.19925801    -0.00600
Br689      Br  0.67093038  0.17286620  0.30924512    -0.00500
Br690      Br  0.58366412  0.14791795  0.27498731    -0.00500
C691        C  0.99638558  0.47389491  0.29084518    -0.01700
C692        C  0.49555080  0.44749611  0.25924824     0.08000
C693        C  0.49673712  0.47543938  0.22794149    -0.01800
C694        C  0.49836930  0.52986330  0.22811455    -0.01800
C695        C  0.49888833  0.55668401  0.25957197     0.08200
C696        C  0.99759041  0.52854599  0.29117443    -0.02000
Br697      Br  0.99654088  0.56535078  0.33408588    -0.00500
Br698      Br  0.99640380  0.43450632  0.33321522    -0.00600
Br699      Br  0.50011093  0.56828759  0.18542311    -0.00500
Br700      Br  0.49713480  0.43853108  0.18495587    -0.00500
C701        C  0.52038670  0.86144994  0.41863139    -0.01700
C702        C  0.49435793  0.90397184  0.42266387     0.08000
C703        C  0.96567764  0.91530592  0.39592432    -0.01800
C704        C  0.96631824  0.88747635  0.36470582    -0.01800
C705        C  0.49181885  0.84342322  0.36135244     0.08200
C706        C  0.51686428  0.82922133  0.38953089    -0.02000
Br707      Br  0.54420285  0.76316950  0.38977398    -0.00500
Br708      Br  0.56215720  0.84671468  0.45182068    -0.00600
Br709      Br  0.93486777  0.91287325  0.32564395    -0.00500
Br710      Br  0.92808409  0.97158135  0.39952329    -0.00500
C711        C  0.50733092  0.84601113  0.07625988    -0.01700
C712        C  0.49727746  0.89910211  0.07880047     0.08000
C713        C  0.98759979  0.91885254  0.11100506    -0.01800
C714        C  0.99040126  0.88747117  0.14080209    -0.01800
C715        C  0.49880274  0.83456307  0.13812125     0.08200
C716        C  0.50747189  0.81362225  0.10583850    -0.02000
Br717      Br  0.52009772  0.74087100  0.10277052    -0.00500
Br718      Br  0.51855167  0.81714286  0.03208823    -0.00600
Br719      Br  0.98579007  0.91817415  0.18560084    -0.00500
Br720      Br  0.96860896  0.98924607  0.11473273    -0.00500
C721        C  0.50617466  0.16663570  0.43113803    -0.01700
C722        C  0.50924377  0.11245905  0.42673569     0.08000
C723        C  0.01236798  0.09237278  0.39319669    -0.01800
C724        C  0.00867161  0.12526538  0.36425191    -0.01800
C725        C  0.50565202  0.17945970  0.36858443     0.08200
C726        C  0.50566832  0.20017839  0.40206198    -0.02000
Br727      Br  0.50592780  0.27419228  0.40757897    -0.00500
Br728      Br  0.50439707  0.19481878  0.47677893    -0.00600
Br729      Br  0.00750912  0.09594425  0.31878824    -0.00500
Br730      Br  0.02416341  0.02004773  0.38664173    -0.00500
C731        C  0.48724485  0.14637871  0.08660274    -0.01700
C732        C  0.51246675  0.10304150  0.08278917     0.08000
C733        C  0.03863753  0.08837212  0.11060452    -0.01800
C734        C  0.03729120  0.11486346  0.14225703    -0.01800
C735        C  0.51152866  0.15798591  0.14597480     0.08200
C736        C  0.48822279  0.17497162  0.11738352    -0.02000
Br737      Br  0.45963021  0.23986002  0.11945850    -0.00500
Br738      Br  0.45056868  0.16747145  0.05024040    -0.00600
Br739      Br  0.06910307  0.09009581  0.18122308    -0.00500
Br740      Br  0.07393256  0.02953093  0.10742217    -0.00500
C741        C  0.76690733  0.61185712  0.36310459    -0.01700
C742        C  0.75114279  0.66251761  0.36262707     0.08000
C743        C  0.73763136  0.68387749  0.39336101    -0.01800
C744        C  0.73980655  0.65441537  0.42429244    -0.01800
C745        C  0.75666580  0.60410589  0.42483349     0.08200
C746        C  0.77226758  0.58434322  0.39436395    -0.02000
Br747      Br  0.80124241  0.51961675  0.39477159    -0.00500
Br748      Br  0.77534027  0.57689931  0.32037702    -0.00600
Br749      Br  0.72242311  0.68446447  0.46626929    -0.00500
Br750      Br  0.71537676  0.75291094  0.39255778    -0.00500
C751        C  0.72548634  0.63740560  0.08209503    -0.01700
C752        C  0.75000518  0.59289190  0.08079194     0.08000
C753        C  0.77409655  0.57961120  0.10998107    -0.01800
C754        C  0.77252679  0.60933557  0.14018227    -0.01800
C755        C  0.74976520  0.65539434  0.14062995     0.08200
C756        C  0.72706223  0.66992712  0.11108854    -0.02000
Br757      Br  0.69964590  0.73592108  0.10947362    -0.00500
Br758      Br  0.68890461  0.65457535  0.04489669    -0.00600
Br759      Br  0.79893891  0.58359494  0.18183682    -0.00500
Br760      Br  0.80741411  0.51829747  0.11041982    -0.00500
C761        C  0.77560080  0.36135151  0.41299586    -0.01700
C762        C  0.75020045  0.40465371  0.41594184     0.08000
C763        C  0.72858566  0.42256049  0.38631021    -0.01800
C764        C  0.73243233  0.39738695  0.35447138    -0.01800
C765        C  0.75598955  0.35233554  0.35217909     0.08200
C766        C  0.77734120  0.33427312  0.38166853    -0.02000
Br767      Br  0.80719993  0.27035745  0.38002028    -0.00500
Br768      Br  0.80827970  0.33791563  0.45156374    -0.00600
Br769      Br  0.70723715  0.42676805  0.31338034    -0.00500
Br770      Br  0.69563770  0.48400386  0.38796776    -0.00500
C771        C  0.72989216  0.40475660  0.10532758    -0.01700
C772        C  0.74001185  0.38506263  0.07305133     0.08000
C773        C  0.75151113  0.33238324  0.07059910    -0.01800
C774        C  0.75339709  0.30022229  0.10037970    -0.01800
C775        C  0.74538590  0.32123452  0.13280030     0.08200
C776        C  0.73559770  0.37419558  0.13518776    -0.02000
Br777      Br  0.73651505  0.40723522  0.17938608    -0.00500
Br778      Br  0.70767052  0.47349584  0.10915833    -0.00600
Br779      Br  0.76824755  0.22811515  0.09743863    -0.00500
Br780      Br  0.76236361  0.30358071  0.02644569    -0.00500
O781        O  0.71548365  0.54729209  0.53469901    -0.74200
O782        O  0.71679193  0.45118374  0.95998736    -0.74300
O783        O  0.71147801  0.44321741  0.52959250    -0.74300
O784        O  0.72170524  0.55526082  0.96485663    -0.74400
O785        O  0.78588732  0.54740813  0.96946196    -0.74300
O786        O  0.77571190  0.43685229  0.53463473    -0.74300
O787        O  0.78087865  0.44422801  0.96459725    -0.74300
O788        O  0.77959969  0.54147779  0.53910240    -0.74300
Ni789      Ni  0.71360459  0.49957502  0.49686569     1.25400
Ni790      Ni  0.78342679  0.49152479  0.00230196     1.25400
C791        C  0.74749499  0.55950917  0.54977332     0.87900
C792        C  0.74890325  0.43356463  0.94896566     0.87900
C793        C  0.74225426  0.42252327  0.54350881     0.87900
C794        C  0.75527536  0.56823267  0.95538455     0.88100
O795        O  0.53844558  0.05390408  0.96832419    -0.74200
O796        O  0.53290467  0.94563742  0.53682230    -0.74300
O797        O  0.53059385  0.95024940  0.96610079    -0.74300
O798        O  0.54038627  0.04980946  0.53872761    -0.74400
O799        O  0.97603457  0.05982883  0.53837251    -0.74300
O800        O  0.96741402  0.95890876  0.96603084    -0.74300
O801        O  0.96808292  0.95673445  0.53646419    -0.74300
O802        O  0.97472793  0.06352108  0.96768391    -0.74300
Ni803      Ni  0.53814925  0.99943745  0.50248772     1.25400
Ni804      Ni  0.96906977  0.01050213  0.50204116     1.25400
C805        C  0.50727106  0.07587538  0.95623258     0.87900
C806        C  0.50001351  0.93436788  0.54872471     0.87900
C807        C  0.49713505  0.93905177  0.95349544     0.87900
C808        C  0.50984287  0.06969896  0.55138657     0.88100
C809        C  0.96296235  0.25519049  0.75105535     0.30200
C810        C  0.54220957  0.25998217  0.75461119     0.30200
C811        C  0.97988359  0.31036093  0.74764186    -0.06000
C812        C  0.98282448  0.23809819  0.78589931    -0.06800
C813        C  0.98500692  0.22373454  0.72442647    -0.06700
C814        C  0.52047835  0.31235791  0.74956011    -0.06000
C815        C  0.52301453  0.24059043  0.78755434    -0.06800
C816        C  0.52467386  0.22714410  0.72593045    -0.06700
C817        C  0.52968166  0.36255777  0.75805056    -0.32100
N818        N  0.49689291  0.39170176  0.75868473     0.14500
C819        C  0.96629422  0.36018511  0.75436025    -0.32100
H820        H  0.93644755  0.37249072  0.75673974     0.16400
C821        C  0.53500215  0.22573077  0.82059333    -0.31000
N822        N  0.50368750  0.21223562  0.83832915     0.13200
C823        C  0.97170432  0.22110940  0.81793474    -0.31000
C824        C  0.53881651  0.20355504  0.69720770    -0.31300
N825        N  0.50888669  0.18353108  0.67866926     0.13700
H826        H  0.56857963  0.20288799  0.68961795     0.16300
C827        C  0.97575561  0.19562946  0.69525803    -0.31300
H828        H  0.94695125  0.18629512  0.68595729     0.16300
H829        H  0.94269738  0.21267343  0.82522723     0.16300
H830        H  0.55821795  0.37694872  0.76388031     0.16400
H831        H  0.56458283  0.22179705  0.83046367     0.16300
C832        C  0.53718057  0.74817005  0.75331702     0.30200
C833        C  0.95768562  0.74778527  0.74971255     0.30200
C834        C  0.51847817  0.69423506  0.75729471    -0.06000
C835        C  0.51639654  0.77862399  0.78178634    -0.06800
C836        C  0.51770185  0.76958360  0.71991882    -0.06700
C837        C  0.97807859  0.69414344  0.75337804    -0.06000
C838        C  0.97629434  0.77791260  0.77954093    -0.06800
C839        C  0.97734020  0.76882136  0.71735311    -0.06700
C840        C  0.96717129  0.64306610  0.75311397    -0.32100
N841        N  0.49897375  0.61241112  0.75982272     0.14500
C842        C  0.53038718  0.64295423  0.76255668    -0.32100
H843        H  0.55974085  0.62860866  0.76666804     0.16400
C844        C  0.96294004  0.79994209  0.80917968    -0.31000
N845        N  0.49338701  0.81614441  0.82910866     0.13200
C846        C  0.52611596  0.80163835  0.81295610    -0.31000
C847        C  0.96657549  0.78755568  0.68472294    -0.31300
N848        N  0.49914366  0.80217720  0.66875554     0.13700
H849        H  0.93752811  0.79227097  0.67397079     0.16300
C850        C  0.53030650  0.79110625  0.68979749    -0.31300
H851        H  0.55988231  0.79996734  0.68410614     0.16300
H852        H  0.55507574  0.80691270  0.82344491     0.16300
H853        H  0.93825981  0.62885548  0.74860457     0.16400
H854        H  0.93304663  0.80281500  0.81629117     0.16300
C855        C  0.78724460  0.75220135  0.75011353     0.30200
C856        C  0.70796775  0.75156439  0.75007646     0.30200
C857        C  0.76674532  0.80604016  0.74886417    -0.06000
C858        C  0.76722030  0.72434562  0.72009550    -0.06800
C859        C  0.76924865  0.72833156  0.78242969    -0.06700
C860        C  0.72636942  0.80589354  0.74730991    -0.06000
C861        C  0.72714193  0.72416912  0.71951834    -0.06800
C862        C  0.72916228  0.72724329  0.78183304    -0.06700
C863        C  0.71410206  0.85712404  0.74239358    -0.32100
N864        N  0.74549104  0.88786373  0.74345440     0.14500
C865        C  0.77752729  0.85721044  0.74814666    -0.32100
H866        H  0.80667328  0.87146603  0.75058408     0.16400
C867        C  0.71583011  0.70167998  0.68859149    -0.31000
N868        N  0.74775501  0.68649132  0.67162057     0.13200
C869        C  0.77927092  0.70154465  0.69033852    -0.31000
C870        C  0.71835748  0.70371303  0.81200037    -0.31300
N871        N  0.75072907  0.69151639  0.83131326     0.13700
H872        H  0.68923425  0.69540199  0.81916954     0.16300
C873        C  0.78179602  0.70751012  0.81403338    -0.31300
H874        H  0.81138126  0.70318803  0.82369539     0.16300
H875        H  0.80883390  0.69618550  0.68283685     0.16300
H876        H  0.68462519  0.87121072  0.73895549     0.16400
H877        H  0.68646680  0.69611659  0.67915140     0.16300
C878        C  0.71270922  0.24398585  0.74926120     0.30600
C879        C  0.79199861  0.24195976  0.74799078     0.30200
C880        C  0.73217397  0.18968925  0.75263866    -0.06000
C881        C  0.73015912  0.26265258  0.71522675    -0.06800
C882        C  0.73393000  0.27490104  0.77688571    -0.06700
C883        C  0.77276651  0.18832504  0.75199448    -0.06000
C884        C  0.77044144  0.26113721  0.71446733    -0.06800
C885        C  0.77365859  0.27501756  0.77612253    -0.06700
C886        C  0.78301191  0.13813870  0.74254546    -0.32100
N887        N  0.75089909  0.10909920  0.73965701     0.14500
C888        C  0.71981477  0.14072396  0.74379720    -0.32100
H889        H  0.69022350  0.12889103  0.74032531     0.16400
C890        C  0.78010789  0.27702225  0.68177705    -0.31000
N891        N  0.74725937  0.29017385  0.66341732     0.13200
C892        C  0.71662852  0.28009580  0.68314087    -0.31000
C893        C  0.78624872  0.30553365  0.80328450    -0.31300
N894        N  0.75498153  0.32211458  0.82086319     0.13700
H895        H  0.81593690  0.31407508  0.81015095     0.16300
C896        C  0.72299104  0.30300113  0.80493927    -0.31300
H897        H  0.69380776  0.30830272  0.81361530     0.16300
H898        H  0.68679186  0.28738189  0.67513457     0.16300
H899        H  0.81189254  0.12370439  0.73776166     0.16400
H900        H  0.80895354  0.28146160  0.67250153     0.16300
C901        C  0.75640328  0.02601734  0.77126633    -0.01700
C902        C  0.74997052  0.05323020  0.73984354     0.08000
C903        C  0.74066011  0.02556991  0.70956190    -0.01800
C904        C  0.73859506  0.97085372  0.71069474    -0.01800
C905        C  0.74535416  0.94376994  0.74220385     0.08200
C906        C  0.75401023  0.97165656  0.77245348    -0.02000
Br907      Br  0.76148300  0.93491570  0.81571680    -0.00500
Br908      Br  0.76751844  0.06384707  0.81293650    -0.00600
Br909      Br  0.72771695  0.93245810  0.66923007    -0.00500
Br910      Br  0.73136362  0.06302246  0.66682637    -0.00500
C911        C  0.85148374  0.78595090  0.72839353    -0.01700
C912        C  0.83132232  0.74966295  0.74790506     0.08000
C913        C  0.85332148  0.70915420  0.76404278    -0.01800
C914        C  0.89302717  0.71358232  0.76963052    -0.01800
C915        C  0.91346257  0.75000001  0.75039790     0.08200
C916        C  0.89149039  0.79000031  0.73330874    -0.02000
Br917      Br  0.91135225  0.85842213  0.72782916    -0.00500
Br918      Br  0.82833845  0.81959318  0.68774517    -0.00600
Br919      Br  0.91444975  0.68063320  0.81123202    -0.00500
Br920      Br  0.83440022  0.63987558  0.76568211    -0.00500
C921        C  0.60257329  0.71049868  0.73507516    -0.01700
C922        C  0.58147644  0.74967541  0.75213776     0.08000
C923        C  0.60265169  0.79169745  0.76565490    -0.01800
C924        C  0.64289829  0.78778813  0.76996868    -0.01800
C925        C  0.66389128  0.74906195  0.75256188     0.08200
C926        C  0.64285243  0.70679892  0.73929139    -0.02000
Br927      Br  0.66542203  0.63774180  0.73746431    -0.00500
Br928      Br  0.57957164  0.66969245  0.69845591    -0.00600
Br929      Br  0.66614751  0.82754552  0.80697613    -0.00500
Br930      Br  0.58116024  0.86135953  0.76570730    -0.00500
C931        C  0.85494182  0.28802042  0.73451700    -0.01700
C932        C  0.83645813  0.24496234  0.74918144     0.08000
C933        C  0.86051645  0.20633162  0.76560302    -0.01800
C934        C  0.90057300  0.20563451  0.76113274    -0.01800
C935        C  0.91882113  0.24923111  0.74726267     0.08200
C936        C  0.89489210  0.28666801  0.72985007    -0.02000
Br937      Br  0.91301477  0.32482235  0.69075611    -0.00500
Br938      Br  0.82894356  0.35443138  0.72730954    -0.00600
Br939      Br  0.92770510  0.14008513  0.76744031    -0.00500
Br940      Br  0.84295598  0.16457474  0.80326867    -0.00500
C941        C  0.60791972  0.29470420  0.73647818    -0.01700
C942        C  0.58651244  0.25734604  0.75411010     0.08000
C943        C  0.60729594  0.21352468  0.76807160    -0.01800
C944        C  0.64765608  0.21299068  0.77106508    -0.01800
C945        C  0.66877447  0.24940670  0.75255726     0.08200
C946        C  0.64826792  0.29380012  0.73957154    -0.02000
Br947      Br  0.67287835  0.35904533  0.73369697    -0.00500
Br948      Br  0.58577302  0.33696429  0.69901618    -0.00600
Br949      Br  0.67108942  0.17217574  0.80865732    -0.00500
Br950      Br  0.58351461  0.14770518  0.77509444    -0.00500
C951        C  0.99610959  0.47420277  0.79071977    -0.01700
C952        C  0.49565163  0.44740331  0.75930806     0.08000
C953        C  0.49676379  0.47553004  0.72806634    -0.01800
C954        C  0.49839876  0.52996729  0.72836426    -0.01800
C955        C  0.49902186  0.55664034  0.75988763     0.08200
C956        C  0.99736050  0.52883700  0.79086689    -0.02000
Br957      Br  0.99636651  0.56598070  0.83365213    -0.00500
Br958      Br  0.99612358  0.43513190  0.83321910    -0.00600
Br959      Br  0.49996017  0.56860642  0.68574416    -0.00500
Br960      Br  0.49701302  0.43884570  0.68499102    -0.00500
C961        C  0.51984014  0.86176343  0.91884114    -0.01700
C962        C  0.49369229  0.90416199  0.92284290     0.08000
C963        C  0.96625277  0.91480881  0.89580002    -0.01800
C964        C  0.96668683  0.88683321  0.86462852    -0.01800
C965        C  0.49162396  0.84394915  0.86140843     0.08200
C966        C  0.51659366  0.82971954  0.88963895    -0.02000
Br967      Br  0.54433355  0.76395286  0.88978218    -0.00500
Br968      Br  0.56137267  0.84689233  0.95226188    -0.00600
Br969      Br  0.93498839  0.91207522  0.82567603    -0.00500
Br970      Br  0.92878116  0.97122500  0.89942368    -0.00500
C971        C  0.50876067  0.84584178  0.57655581    -0.01700
C972        C  0.49820842  0.89881403  0.57887380     0.08000
C973        C  0.98720738  0.91939049  0.61107763    -0.01800
C974        C  0.99017633  0.88786204  0.64078799    -0.01800
C975        C  0.49940566  0.83441994  0.63832455     0.08200
C976        C  0.50863934  0.81350175  0.60616447    -0.02000
Br977      Br  0.52158473  0.74081865  0.60329144    -0.00500
Br978      Br  0.52119257  0.81705329  0.53264568    -0.00600
Br979      Br  0.98617056  0.91835755  0.68571873    -0.00500
Br980      Br  0.96857934  0.98990408  0.61507102    -0.00500
C981        C  0.50597014  0.16657315  0.93097486    -0.01700
C982        C  0.50891019  0.11238438  0.92664534     0.08000
C983        C  0.01261433  0.09244217  0.89325009    -0.01800
C984        C  0.00889026  0.12547457  0.86437670    -0.01800
C985        C  0.50539733  0.17917176  0.86841066     0.08200
C986        C  0.50553039  0.20000397  0.90185472    -0.02000
Br987      Br  0.50605083  0.27402199  0.90725929    -0.00500
Br988      Br  0.50424335  0.19490192  0.97658213    -0.00600
Br989      Br  0.00784563  0.09637612  0.81885351    -0.00500
Br990      Br  0.02449132  0.02017138  0.88654249    -0.00500
C991        C  0.48754834  0.14605592  0.58653608    -0.01700
C992        C  0.51279069  0.10272269  0.58276789     0.08000
C993        C  0.03850062  0.08891221  0.61061633    -0.01800
C994        C  0.03724133  0.11540236  0.64227522    -0.01800
C995        C  0.51166758  0.15764526  0.64594693     0.08200
C996        C  0.48848037  0.17467963  0.61730098    -0.02000
Br997      Br  0.46001527  0.23968430  0.61929188    -0.00500
Br998      Br  0.45083198  0.16703168  0.55018521    -0.00600
Br999      Br  0.06919056  0.09067138  0.68116828    -0.00500
Br1000     Br  0.07380837  0.03009360  0.60737087    -0.00500
C1001       C  0.76757822  0.61076645  0.86319278    -0.01700
C1002       C  0.75244477  0.66176618  0.86295850     0.08000
C1003       C  0.74008730  0.68358942  0.89394750    -0.01800
C1004       C  0.74296114  0.65437972  0.92495658    -0.01800
C1005       C  0.75839915  0.60331343  0.92512069     0.08200
C1006       C  0.77273155  0.58289189  0.89433848    -0.02000
Br1007     Br  0.79988287  0.51683535  0.89427769    -0.00500
Br1008     Br  0.77594413  0.57622180  0.82030675    -0.00600
Br1009     Br  0.72922312  0.68603340  0.96751810    -0.00500
Br1010     Br  0.71830953  0.75288770  0.89338353    -0.00500
C1011       C  0.72300254  0.63741482  0.58252190    -0.01700
C1012       C  0.74766239  0.59307626  0.58086354     0.08000
C1013       C  0.77210630  0.57983902  0.60985979    -0.01800
C1014       C  0.77072423  0.60937258  0.64015946    -0.01800
C1015       C  0.74826647  0.65565259  0.64074960     0.08200
C1016       C  0.72529606  0.67023580  0.61137311    -0.02000
Br1017     Br  0.69885988  0.73688949  0.60966862    -0.00500
Br1018     Br  0.68518907  0.65379726  0.54616290    -0.00600
Br1019     Br  0.79696652  0.58313868  0.68175374    -0.00500
Br1020     Br  0.80583225  0.51894092  0.60990488    -0.00500
C1021       C  0.77527482  0.36054863  0.91315812    -0.01700
C1022       C  0.74952509  0.40341316  0.91641712     0.08000
C1023       C  0.72691600  0.42053156  0.88714440    -0.01800
C1024       C  0.73045020  0.39537780  0.85525220    -0.01800
C1025       C  0.75488409  0.35118718  0.85252070     0.08200
C1026       C  0.77693884  0.33363368  0.88176130    -0.02000
Br1027     Br  0.80772087  0.27053048  0.87975538    -0.00500
Br1028     Br  0.80842307  0.33727624  0.95148601    -0.00600
Br1029     Br  0.70349653  0.42382694  0.81470401    -0.00500
Br1030     Br  0.69294766  0.48096681  0.88926726    -0.00500
C1031       C  0.72931245  0.40520550  0.60511623    -0.01700
C1032       C  0.73946583  0.38559566  0.57282199     0.08000
C1033       C  0.75130253  0.33303914  0.57040559    -0.01800
C1034       C  0.75351257  0.30094330  0.60021953    -0.01800
C1035       C  0.74541682  0.32188898  0.63264091     0.08200
C1036       C  0.73532048  0.37475313  0.63500097    -0.02000
Br1037     Br  0.73628060  0.40786014  0.67918281    -0.00500
Br1038     Br  0.70649939  0.47358955  0.60892873    -0.00600
Br1039     Br  0.76901910  0.22906782  0.59732642    -0.00500
Br1040     Br  0.76213932  0.30426966  0.52624946    -0.00500
loop_ 
_geom_bond_atom_site_label_1 
_geom_bond_atom_site_label_2 
_geom_bond_distance 
_geom_bond_site_symmetry_2 
_ccdc_geom_bond_type 
O1           Ni9   1.923   1_554  S
O1           C11   1.282       .  A
O2         Ni269   1.920       .  S
O2           C12   1.282       .  A
O3           Ni9   1.926   1_554  S
O3           C13   1.282       .  A
O4         Ni269   1.929       .  S
O4           C14   1.283       .  A
O5          Ni10   1.921       .  S
O5           C14   1.281       .  A
O6         Ni270   1.929       .  S
O6           C13   1.283       .  A
O7          Ni10   1.912       .  S
O7           C12   1.280       .  A
O8         Ni270   1.914       .  S
O8           C11   1.281       .  A
Ni9         O262   1.923       .  S
Ni9         O264   1.928       .  S
Ni9        Ni270   2.385   1_556  S
Ni10        O266   1.929       .  S
Ni10        O268   1.915       .  S
Ni10       Ni269   2.385       .  S
C11         C232   1.490       .  S
C12         C242   1.488       .  S
C13         C252   1.484       .  S
C14         C225   1.484       .  S
O15        Ni283   1.924   1_545  S
O15          C25   1.281       .  A
O16         Ni23   1.931       .  S
O16          C26   1.284       .  A
O17        Ni283   1.922       .  S
O17          C27   1.282   1_455  A
O18         Ni23   1.922   1_545  S
O18          C28   1.282       .  A
O19         Ni24   1.918       .  S
O19         C548   1.281       .  A
O20        Ni284   1.922   1_565  S
O20         C547   1.282       .  A
O21         Ni24   1.919   1_565  S
O21         C546   1.280       .  A
O22        Ni284   1.929       .  S
O22         C545   1.283       .  A
Ni23        O275   1.924   1_564  S
Ni23        O277   1.923   1_554  S
Ni23       Ni544   2.384   1_465  S
Ni24        O280   1.922   1_544  S
Ni24        O282   1.928   1_554  S
Ni24       Ni543   2.384   1_545  S
C25         O542   1.282   1_455  A
C25         C202   1.482       .  S
C26         O541   1.280   1_455  A
C26         C192   1.484   1_455  S
C27         O540   1.282       .  A
C27         C182   1.499       .  S
C28         O539   1.281   1_455  A
C28         C212   1.492       .  S
C29          C31   1.558       .  S
C29          C33   1.533       .  S
C29          C32   1.549       .  S
C29         C155   1.543       .  S
C30          C34   1.541       .  S
C30          C36   1.520       .  S
C30          C35   1.545       .  S
C30         C162   1.536       .  S
C31          C39   1.390       .  A
C31         C554   1.407       .  A
C32          C43   1.384       .  A
C32         C555   1.397       .  A
C33          C47   1.380       .  A
C33         C556   1.380       .  A
C34          C37   1.381       .  A
C34         C551   1.408   1_455  A
C35          C41   1.380       .  A
C35         C552   1.397   1_455  A
C36          C44   1.374       .  A
C36         C553   1.380   1_455  A
C37          N38   1.350   1_455  A
C37          H50   1.081       .  S
N38         C559   1.356       .  A
N38         C172   1.438       .  S
C39         N558   1.356       .  A
C39          H40   1.083       .  S
C41          N42   1.356       .  A
C41          H51   1.084       .  S
N42         C563   1.359   1_455  A
N42         C205   1.438       .  S
C43         N562   1.359       .  A
C43          H49   1.080       .  S
C44          N45   1.355       .  A
C44          H46   1.083       .  S
N45         C567   1.363   1_455  A
N45         C215   1.443       .  S
C47         N565   1.363       .  A
C47          H48   1.082       .  S
C52          C54   1.557       .  S
C52          C56   1.531       .  S
C52          C55   1.549       .  S
C52         C142   1.539       .  S
C53          C57   1.544       .  S
C53          C59   1.548       .  S
C53          C58   1.529       .  S
C53         C135   1.534       .  S
C54          C62   1.389       .  A
C54         C577   1.398   1_455  A
C55          C66   1.384       .  A
C55         C578   1.389   1_455  A
C56          C70   1.378       .  A
C56         C579   1.391   1_455  A
C57          C60   1.380       .  A
C57         C574   1.398       .  A
C58          C64   1.376       .  A
C58         C575   1.389       .  A
C59          C67   1.385       .  A
C59         C576   1.390       .  A
C60         N581   1.353       .  A
C60          H73   1.083       .  S
N61          C62   1.360   1_655  A
N61         C580   1.353       .  A
N61         C175   1.440       .  S
C62          H63   1.081       .  S
C64         N585   1.357       .  A
C64          H74   1.083       .  S
N65          C66   1.362   1_655  A
N65         C584   1.357       .  A
N65         C185   1.450       .  S
C66          H72   1.081       .  S
C67         N588   1.360       .  A
C67          H69   1.080       .  S
N68          C70   1.354   1_655  A
N68         C587   1.360       .  A
N68         C195   1.438       .  S
C70          H71   1.085       .  S
C75          C77   1.546       .  S
C75          C79   1.548       .  S
C75          C78   1.526       .  S
C75         C132   1.533       .  S
C76          C80   1.558       .  S
C76          C82   1.533       .  S
C76          C81   1.547       .  S
C76         C145   1.537       .  S
C77          C85   1.381       .  A
C77          C80   1.399       .  A
C78          C89   1.373       .  A
C78          C81   1.389       .  A
C79          C93   1.385       .  A
C79          C82   1.390       .  A
C80          C83   1.390       .  A
C81          C87   1.383       .  A
C82          C90   1.380       .  A
C83          N84   1.360       .  A
C83          H96   1.080       .  S
N84          C85   1.355       .  A
N84         C125   1.443       .  S
C85          H86   1.084       .  S
C87          N88   1.360       .  A
C87          H97   1.082       .  S
N88          C89   1.355       .  A
N88         C235   1.443       .  S
C89          H95   1.082       .  S
C90          N91   1.356       .  A
C90          H92   1.082       .  S
N91          C93   1.358       .  A
N91         C222   1.440       .  S
C93          H94   1.082       .  S
C98         C100   1.545       .  S
C98         C102   1.519       .  S
C98         C101   1.548       .  S
C98         C165   1.536       .  S
C99         C103   1.559       .  S
C99         C105   1.537       .  S
C99         C104   1.547       .  S
C99         C152   1.544       .  S
C100        C108   1.385       .  A
C100        C103   1.408       .  A
C101        C112   1.381       .  A
C101        C104   1.397       .  A
C102        C116   1.372       .  A
C102        C105   1.379       .  A
C103        C106   1.391       .  A
C104        C110   1.383       .  A
C105        C113   1.383       .  A
C106        N107   1.357       .  A
C106        H119   1.083       .  S
N107        C108   1.353       .  A
N107        C122   1.443       .  S
C108        H109   1.081       .  S
C110        N111   1.356       .  A
C110        H120   1.083       .  S
N111        C112   1.359       .  A
N111        C255   1.440       .  S
C112        H118   1.081       .  S
C113        N114   1.364       .  A
C113        H115   1.081       .  S
N114        C116   1.354       .  A
N114        C245   1.443       .  S
C116        H117   1.084       .  S
C121        C122   1.409       .  A
C121        C126   1.408   1_545  A
C121       Br128   1.925       .  S
C122        C123   1.410       .  A
C123        C124   1.416   1_545  A
C123       Br130   1.924       .  S
C124        C125   1.411       .  A
C124       Br129   1.925       .  S
C125        C126   1.407       .  A
C126       Br127   1.926       .  S
C131        C132   1.411       .  A
C131        C136   1.399       .  A
C131       Br138   1.932       .  S
C132        C133   1.409       .  A
C133        C134   1.393       .  A
C133       Br140   1.920       .  S
C134        C135   1.413       .  A
C134       Br139   1.933       .  S
C135        C136   1.415       .  A
C136       Br137   1.922       .  S
C141        C142   1.417       .  A
C141        C146   1.401       .  A
C141       Br148   1.933       .  S
C142        C143   1.416       .  A
C143        C144   1.400       .  A
C143       Br150   1.931       .  S
C144        C145   1.413       .  A
C144       Br149   1.933       .  S
C145        C146   1.415       .  A
C146       Br147   1.934       .  S
C151        C152   1.420       .  A
C151        C156   1.403       .  A
C151       Br158   1.933       .  S
C152        C153   1.418       .  A
C153        C154   1.405       .  A
C153       Br160   1.931       .  S
C154        C155   1.415       .  A
C154       Br159   1.927       .  S
C155        C156   1.411       .  A
C156       Br157   1.931       .  S
C161        C162   1.416       .  A
C161        C166   1.399       .  A
C161       Br168   1.935       .  S
C162        C163   1.420       .  A
C163        C164   1.399       .  A
C163       Br170   1.926       .  S
C164        C165   1.411       .  A
C164       Br169   1.935       .  S
C165        C166   1.414       .  A
C166       Br167   1.920       .  S
C171        C176   1.412       .  A
C171        C692   1.406       .  A
C171       Br178   1.924       .  S
C172        C173   1.409       .  A
C172        C691   1.406       .  A
C173        C174   1.408       .  A
C173       Br180   1.926       .  S
C174        C175   1.407       .  A
C174       Br179   1.925       .  S
C175        C696   1.410       .  A
C176        C695   1.410       .  A
C176       Br177   1.923       .  S
C181        C182   1.419   1_455  A
C181        C186   1.410       .  A
C181       Br188   1.931       .  S
C182        C703   1.421       .  A
C183        C184   1.413       .  A
C183        C702   1.421       .  A
C183       Br190   1.939       .  S
C184        C705   1.416       .  A
C184       Br189   1.934       .  S
C185        C186   1.411   1_655  A
C185        C704   1.416       .  A
C186       Br187   1.932       .  S
C191        C192   1.412   1_455  A
C191        C196   1.413       .  A
C191       Br198   1.921       .  S
C192        C713   1.411       .  A
C193        C194   1.404       .  A
C193        C712   1.411       .  A
C193       Br200   1.927       .  S
C194        C715   1.405       .  A
C194       Br199   1.925       .  S
C195        C196   1.407   1_655  A
C195        C714   1.405       .  A
C196       Br197   1.925       .  S
C201        C202   1.412       .  A
C201        C206   1.414       .  A
C201       Br208   1.920       .  S
C202        C723   1.407       .  A
C203        C204   1.402       .  A
C203        C722   1.407       .  A
C203       Br210   1.923       .  S
C204        C725   1.406       .  A
C204       Br209   1.922       .  S
C205        C206   1.407       .  A
C205        C724   1.406       .  A
C206       Br207   1.924       .  S
C211        C212   1.417   1_655  A
C211        C216   1.407       .  A
C211       Br218   1.930       .  S
C212        C733   1.420       .  A
C213        C214   1.411       .  A
C213        C732   1.420       .  A
C213       Br220   1.937       .  S
C214        C735   1.413       .  A
C214       Br219   1.933       .  S
C215        C216   1.408   1_455  A
C215        C734   1.413       .  A
C216       Br217   1.931       .  S
C221        C222   1.406       .  A
C221        C226   1.404       .  A
C221       Br228   1.920       .  S
C222        C223   1.407       .  A
C223        C224   1.412       .  A
C223       Br230   1.926       .  S
C224        C225   1.412       .  A
C224       Br229   1.917       .  S
C225        C226   1.410       .  A
C226       Br227   1.929       .  S
C231        C232   1.417       .  A
C231        C236   1.409       .  A
C231       Br238   1.927       .  S
C232        C233   1.417       .  A
C233        C234   1.407       .  A
C233       Br240   1.938       .  S
C234        C235   1.412       .  A
C234       Br239   1.932       .  S
C235        C236   1.409       .  A
C236       Br237   1.931       .  S
C241        C242   1.416       .  A
C241        C246   1.408       .  A
C241       Br248   1.928       .  S
C242        C243   1.417       .  A
C243        C244   1.409       .  A
C243       Br250   1.938       .  S
C244        C245   1.413       .  A
C244       Br249   1.930       .  S
C245        C246   1.410       .  A
C246       Br247   1.931       .  S
C251        C252   1.407       .  A
C251        C256   1.401       .  A
C251       Br258   1.927       .  S
C252        C253   1.413       .  A
C253        C254   1.415       .  A
C253       Br260   1.917       .  S
C254        C255   1.407       .  A
C254       Br259   1.925       .  S
C255        C256   1.406       .  A
C256       Br257   1.919       .  S
O261       Ni269   1.918       .  S
O261        C271   1.281       .  A
O262        C272   1.283       .  A
O263       Ni269   1.925       .  S
O263        C273   1.282       .  A
O264        C274   1.283       .  A
O265       Ni270   1.921   1_556  S
O265        C274   1.281       .  A
O266        C273   1.283       .  A
O267       Ni270   1.912   1_556  S
O267        C272   1.280       .  A
O268        C271   1.281       .  A
C271        C492   1.487       .  S
C272        C502   1.487       .  S
C273        C512   1.483       .  S
C274        C485   1.484       .  S
O275        C285   1.281       .  A
O276       Ni283   1.930       .  S
O276        C286   1.283   1_455  A
O277        C287   1.282   1_455  A
O278       Ni283   1.921   1_545  S
O278        C288   1.282       .  A
O279       Ni284   1.918       .  S
O279        C808   1.281       .  A
O280        C807   1.282       .  A
O281       Ni284   1.920   1_565  S
O281        C806   1.280       .  A
O282        C805   1.282       .  A
Ni283      Ni804   2.384   1_465  S
Ni284      Ni803   2.384   1_545  S
C285        O802   1.283   1_455  A
C285        C462   1.482       .  S
C286        O801   1.280       .  A
C286        C452   1.482       .  S
C287        O800   1.282       .  A
C287        C442   1.500       .  S
C288        O799   1.281   1_455  A
C288        C472   1.492       .  S
C289        C291   1.559       .  S
C289        C293   1.534       .  S
C289        C292   1.549       .  S
C289        C415   1.543       .  S
C290        C294   1.540       .  S
C290        C296   1.521       .  S
C290        C295   1.545       .  S
C290        C422   1.537       .  S
C291        C299   1.390       .  A
C291        C814   1.408       .  A
C292        C303   1.383       .  A
C292        C815   1.397       .  A
C293        C307   1.380       .  A
C293        C816   1.380       .  A
C294        C811   1.407   1_455  A
C294        C297   1.380       .  A
C295        C812   1.397   1_455  A
C295        C301   1.380       .  A
C296        C813   1.380   1_455  A
C296        C304   1.374       .  A
C297        N298   1.350   1_455  A
C297        H310   1.081       .  S
N298        C819   1.356       .  A
N298        C432   1.437       .  S
C299        N818   1.356       .  A
C299        H300   1.083       .  S
C301        N302   1.356       .  A
C301        H311   1.084       .  S
N302        C823   1.359   1_455  A
N302        C465   1.438       .  S
C303        N822   1.359       .  A
C303        H309   1.080       .  S
C304        N305   1.355       .  A
C304        H306   1.083       .  S
N305        C827   1.363   1_455  A
N305        C475   1.443       .  S
C307        N825   1.363       .  A
C307        H308   1.082       .  S
C312        C314   1.557       .  S
C312        C316   1.531       .  S
C312        C315   1.550       .  S
C312        C402   1.538       .  S
C313        C317   1.544       .  S
C313        C319   1.549       .  S
C313        C318   1.529       .  S
C313        C395   1.535       .  S
C314        C322   1.389       .  A
C314        C837   1.398   1_455  A
C315        C326   1.385       .  A
C315        C838   1.389   1_455  A
C316        C330   1.377       .  A
C316        C839   1.390   1_455  A
C317        C834   1.398       .  A
C317        C320   1.380       .  A
C318        C835   1.389       .  A
C318        C324   1.376       .  A
C319        C836   1.391       .  A
C319        C327   1.386       .  A
C320        N841   1.353       .  A
C320        H333   1.083       .  S
N321        C840   1.353       .  A
N321        C322   1.360   1_655  A
N321        C435   1.439       .  S
C322        H323   1.081       .  S
C324        N845   1.357       .  A
C324        H334   1.083       .  S
N325        C844   1.357       .  A
N325        C326   1.362   1_655  A
N325        C445   1.451       .  S
C326        H332   1.081       .  S
C327        N848   1.360       .  A
C327        H329   1.080       .  S
N328        C847   1.360       .  A
N328        C330   1.353   1_655  A
N328        C455   1.437       .  S
C330        H331   1.085       .  S
C335        C337   1.547       .  S
C335        C339   1.549       .  S
C335        C338   1.525       .  S
C335        C392   1.534       .  S
C336        C340   1.557       .  S
C336        C342   1.533       .  S
C336        C341   1.547       .  S
C336        C405   1.538       .  S
C337        C345   1.381       .  A
C337        C340   1.399       .  A
C338        C349   1.372       .  A
C338        C341   1.389       .  A
C339        C353   1.385       .  A
C339        C342   1.390       .  A
C340        C343   1.389       .  A
C341        C347   1.383       .  A
C342        C350   1.380       .  A
C343        N344   1.360       .  A
C343        H356   1.080       .  S
N344        C345   1.356       .  A
N344        C385   1.443       .  S
C345        H346   1.084       .  S
C347        N348   1.360       .  A
C347        H357   1.082       .  S
N348        C349   1.354       .  A
N348        C495   1.442       .  S
C349        H355   1.082       .  S
C350        N351   1.356       .  A
C350        H352   1.082       .  S
N351        C353   1.359       .  A
N351        C482   1.440       .  S
C353        H354   1.082       .  S
C358        C360   1.545       .  S
C358        C362   1.519       .  S
C358        C361   1.548       .  S
C358        C425   1.537       .  S
C359        C363   1.558       .  S
C359        C365   1.536       .  S
C359        C364   1.547       .  S
C359        C412   1.544       .  S
C360        C368   1.385       .  A
C360        C363   1.409       .  A
C361        C372   1.381       .  A
C361        C364   1.397       .  A
C362        C376   1.372       .  A
C362        C365   1.379       .  A
C363        C366   1.391       .  A
C364        C370   1.383       .  A
C365        C373   1.383       .  A
C366        N367   1.357       .  A
C366        H379   1.083       .  S
N367        C368   1.352       .  A
N367        C382   1.443       .  S
C368        H369   1.081       .  S
C370        N371   1.356       .  A
C370        H380   1.083       .  S
N371        C372   1.359       .  A
N371        C515   1.439       .  S
C372        H378   1.081       .  S
C373        N374   1.363       .  A
C373        H375   1.081       .  S
N374        C376   1.354       .  A
N374        C505   1.442       .  S
C376        H377   1.084       .  S
C381        C382   1.409       .  A
C381        C386   1.408   1_545  A
C381       Br388   1.925       .  S
C382        C383   1.409       .  A
C383        C384   1.416   1_545  A
C383       Br390   1.924       .  S
C384        C385   1.412       .  A
C384       Br389   1.924       .  S
C385        C386   1.407       .  A
C386       Br387   1.926       .  S
C391        C392   1.412       .  A
C391        C396   1.399       .  A
C391       Br398   1.932       .  S
C392        C393   1.410       .  A
C393        C394   1.394       .  A
C393       Br400   1.919       .  S
C394        C395   1.413       .  A
C394       Br399   1.933       .  S
C395        C396   1.415       .  A
C396       Br397   1.922       .  S
C401        C402   1.417       .  A
C401        C406   1.401       .  A
C401       Br408   1.933       .  S
C402        C403   1.415       .  A
C403        C404   1.400       .  A
C403       Br410   1.932       .  S
C404        C405   1.415       .  A
C404       Br409   1.933       .  S
C405        C406   1.416       .  A
C406       Br407   1.934       .  S
C411        C412   1.420       .  A
C411        C416   1.403       .  A
C411       Br418   1.933       .  S
C412        C413   1.417       .  A
C413        C414   1.405       .  A
C413       Br420   1.932       .  S
C414        C415   1.415       .  A
C414       Br419   1.927       .  S
C415        C416   1.411       .  A
C416       Br417   1.932       .  S
C421        C422   1.416       .  A
C421        C426   1.399       .  A
C421       Br428   1.935       .  S
C422        C423   1.420       .  A
C423        C424   1.399       .  A
C423       Br430   1.926       .  S
C424        C425   1.411       .  A
C424       Br429   1.935       .  S
C425        C426   1.414       .  A
C426       Br427   1.919       .  S
C431        C952   1.406       .  A
C431        C436   1.412       .  A
C431       Br438   1.924       .  S
C432        C951   1.406       .  A
C432        C433   1.408       .  A
C433        C434   1.407       .  A
C433       Br440   1.926       .  S
C434        C435   1.406       .  A
C434       Br439   1.925   1_655  S
C435        C956   1.410       .  A
C436        C955   1.410       .  A
C436       Br437   1.923       .  S
C441        C442   1.419   1_455  A
C441        C446   1.410       .  A
C441       Br448   1.931       .  S
C442        C963   1.421       .  A
C443        C962   1.421       .  A
C443        C444   1.412       .  A
C443       Br450   1.939       .  S
C444        C965   1.416       .  A
C444       Br449   1.934       .  S
C445        C964   1.416       .  A
C445        C446   1.411   1_655  A
C446       Br447   1.932       .  S
C451        C452   1.412   1_455  A
C451        C456   1.413       .  A
C451       Br458   1.921       .  S
C452        C973   1.411       .  A
C453        C972   1.411       .  A
C453        C454   1.404       .  A
C453       Br460   1.927       .  S
C454        C975   1.405       .  A
C454       Br459   1.924       .  S
C455        C974   1.405       .  A
C455        C456   1.406   1_655  A
C456       Br457   1.924       .  S
C461        C462   1.412       .  A
C461        C466   1.415       .  A
C461       Br468   1.920       .  S
C462        C983   1.407       .  A
C463        C982   1.407       .  A
C463        C464   1.402       .  A
C463       Br470   1.923       .  S
C464        C985   1.406       .  A
C464       Br469   1.922       .  S
C465        C984   1.406       .  A
C465        C466   1.407       .  A
C466       Br467   1.924       .  S
C471        C472   1.417   1_655  A
C471        C476   1.407       .  A
C471       Br478   1.930       .  S
C472        C993   1.420       .  A
C473        C992   1.420       .  A
C473        C474   1.411       .  A
C473       Br480   1.937       .  S
C474        C995   1.413       .  A
C474       Br479   1.933       .  S
C475        C994   1.413       .  A
C475        C476   1.408   1_455  A
C476       Br477   1.931       .  S
C481        C482   1.406       .  A
C481        C486   1.403       .  A
C481       Br488   1.920       .  S
C482        C483   1.407       .  A
C483        C484   1.413       .  A
C483       Br490   1.926       .  S
C484        C485   1.412       .  A
C484       Br489   1.919       .  S
C485        C486   1.411       .  A
C486       Br487   1.930       .  S
C491        C492   1.416       .  A
C491        C496   1.408       .  A
C491       Br498   1.927       .  S
C492        C493   1.416       .  A
C493        C494   1.406       .  A
C493       Br500   1.938       .  S
C494        C495   1.413       .  A
C494       Br499   1.932       .  S
C495        C496   1.409       .  A
C496       Br497   1.932       .  S
C501        C502   1.416       .  A
C501        C506   1.408       .  A
C501       Br508   1.927       .  S
C502        C503   1.417       .  A
C503        C504   1.408       .  A
C503       Br510   1.937       .  S
C504        C505   1.411       .  A
C504       Br509   1.930       .  S
C505        C506   1.409       .  A
C506       Br507   1.931       .  S
C511        C512   1.407       .  A
C511        C516   1.401       .  A
C511       Br518   1.928       .  S
C512        C513   1.413       .  A
C513        C514   1.415       .  A
C513       Br520   1.917       .  S
C514        C515   1.407       .  A
C514       Br519   1.926       .  S
C515        C516   1.406       .  A
C516       Br517   1.919       .  S
O521       Ni529   1.919   1_554  S
O521        C531   1.281       .  A
O522       Ni789   1.923       .  S
O522        C532   1.283       .  A
O523       Ni529   1.925   1_554  S
O523        C533   1.282       .  A
O524       Ni789   1.928       .  S
O524        C534   1.283       .  A
O525       Ni530   1.921       .  S
O525        C534   1.281       .  A
O526       Ni790   1.929       .  S
O526        C533   1.283       .  A
O527       Ni530   1.912       .  S
O527        C532   1.280       .  A
O528       Ni790   1.915       .  S
O528        C531   1.281       .  A
Ni529       O782   1.920       .  S
Ni529       O784   1.929       .  S
Ni529      Ni790   2.385   1_556  S
Ni530       O786   1.929       .  S
Ni530       O788   1.914       .  S
Ni530      Ni789   2.385       .  S
C531        C752   1.488       .  S
C532        C762   1.487       .  S
C533        C772   1.483       .  S
C534        C745   1.484       .  S
O535       Ni803   1.924   1_545  S
O535        C545   1.281       .  A
O536       Ni543   1.930       .  S
O536        C546   1.283       .  A
O537       Ni803   1.923       .  S
O537        C547   1.282       .  A
O538       Ni543   1.921   1_545  S
O538        C548   1.282       .  A
O539       Ni544   1.918       .  S
O540       Ni804   1.922   1_565  S
O541       Ni544   1.920   1_565  S
O542       Ni804   1.928       .  S
Ni543       O795   1.924   1_564  S
Ni543       O797   1.922   1_554  S
Ni544       O800   1.922   1_544  S
Ni544       O802   1.929   1_554  S
C545        C722   1.482       .  S
C546        C712   1.482       .  S
C547        C702   1.500       .  S
C548        C732   1.492       .  S
C549        C551   1.559       .  S
C549        C553   1.533       .  S
C549        C552   1.549       .  S
C549        C675   1.543       .  S
C550        C554   1.541       .  S
C550        C556   1.521       .  S
C550        C555   1.545       .  S
C550        C682   1.537       .  S
C551        C559   1.390       .  A
C552        C563   1.383       .  A
C553        C567   1.380       .  A
C554        C557   1.381       .  A
C555        C561   1.380       .  A
C556        C564   1.374       .  A
C557        N558   1.350       .  A
C557        H570   1.081       .  S
N558        C692   1.437       .  S
C559        H560   1.083       .  S
C561        N562   1.356       .  A
C561        H571   1.084       .  S
N562        C725   1.438       .  S
C563        H569   1.080       .  S
C564        N565   1.355       .  A
C564        H566   1.083       .  S
N565        C735   1.443       .  S
C567        H568   1.082       .  S
C572        C574   1.557       .  S
C572        C576   1.531       .  S
C572        C575   1.550       .  S
C572        C662   1.538       .  S
C573        C577   1.544       .  S
C573        C579   1.549       .  S
C573        C578   1.529       .  S
C573        C655   1.535       .  S
C574        C582   1.389       .  A
C575        C586   1.385       .  A
C576        C590   1.377       .  A
C577        C580   1.380       .  A
C578        C584   1.376       .  A
C579        C587   1.386       .  A
C580        H593   1.083       .  S
N581        C582   1.360       .  A
N581        C695   1.439       .  S
C582        H583   1.081       .  S
C584        H594   1.083       .  S
N585        C586   1.362       .  A
N585        C705   1.451       .  S
C586        H592   1.081       .  S
C587        H589   1.080       .  S
N588        C590   1.353       .  A
N588        C715   1.437       .  S
C590        H591   1.085       .  S
C595        C597   1.547       .  S
C595        C599   1.549       .  S
C595        C598   1.525       .  S
C595        C652   1.534       .  S
C596        C600   1.557       .  S
C596        C602   1.533       .  S
C596        C601   1.547       .  S
C596        C665   1.538       .  S
C597        C605   1.381       .  A
C597        C600   1.399       .  A
C598        C609   1.372       .  A
C598        C601   1.389       .  A
C599        C613   1.385       .  A
C599        C602   1.390       .  A
C600        C603   1.389       .  A
C601        C607   1.383       .  A
C602        C610   1.380       .  A
C603        N604   1.360       .  A
C603        H616   1.080       .  S
N604        C605   1.356       .  A
N604        C645   1.443       .  S
C605        H606   1.084       .  S
C607        N608   1.360       .  A
C607        H617   1.082       .  S
N608        C609   1.354       .  A
N608        C755   1.442       .  S
C609        H615   1.082       .  S
C610        N611   1.356       .  A
C610        H612   1.082       .  S
N611        C613   1.359       .  A
N611        C742   1.440       .  S
C613        H614   1.082       .  S
C618        C620   1.545       .  S
C618        C622   1.519       .  S
C618        C621   1.548       .  S
C618        C685   1.537       .  S
C619        C623   1.558       .  S
C619        C625   1.536       .  S
C619        C624   1.547       .  S
C619        C672   1.544       .  S
C620        C628   1.385       .  A
C620        C623   1.409       .  A
C621        C632   1.381       .  A
C621        C624   1.397       .  A
C622        C636   1.372       .  A
C622        C625   1.379       .  A
C623        C626   1.391       .  A
C624        C630   1.383       .  A
C625        C633   1.383       .  A
C626        N627   1.357       .  A
C626        H639   1.083       .  S
N627        C628   1.352       .  A
N627        C642   1.443       .  S
C628        H629   1.081       .  S
C630        N631   1.356       .  A
C630        H640   1.083       .  S
N631        C632   1.359       .  A
N631        C775   1.439       .  S
C632        H638   1.081       .  S
C633        N634   1.363       .  A
C633        H635   1.081       .  S
N634        C636   1.354       .  A
N634        C765   1.442       .  S
C636        H637   1.084       .  S
C641        C642   1.409       .  A
C641        C646   1.408   1_545  A
C641       Br648   1.925       .  S
C642        C643   1.409       .  A
C643        C644   1.416   1_545  A
C643       Br650   1.924       .  S
C644        C645   1.412       .  A
C644       Br649   1.924       .  S
C645        C646   1.407       .  A
C646       Br647   1.926       .  S
C651        C652   1.412       .  A
C651        C656   1.399       .  A
C651       Br658   1.932       .  S
C652        C653   1.410       .  A
C653        C654   1.394       .  A
C653       Br660   1.919       .  S
C654        C655   1.413       .  A
C654       Br659   1.933       .  S
C655        C656   1.415       .  A
C656       Br657   1.922       .  S
C661        C662   1.417       .  A
C661        C666   1.401       .  A
C661       Br668   1.933       .  S
C662        C663   1.415       .  A
C663        C664   1.400       .  A
C663       Br670   1.932       .  S
C664        C665   1.415       .  A
C664       Br669   1.933       .  S
C665        C666   1.416       .  A
C666       Br667   1.934       .  S
C671        C672   1.420       .  A
C671        C676   1.403       .  A
C671       Br678   1.933       .  S
C672        C673   1.417       .  A
C673        C674   1.405       .  A
C673       Br680   1.932       .  S
C674        C675   1.415       .  A
C674       Br679   1.927       .  S
C675        C676   1.411       .  A
C676       Br677   1.932       .  S
C681        C682   1.416       .  A
C681        C686   1.399       .  A
C681       Br688   1.935       .  S
C682        C683   1.420       .  A
C683        C684   1.399       .  A
C683       Br690   1.926       .  S
C684        C685   1.411       .  A
C684       Br689   1.935       .  S
C685        C686   1.414       .  A
C686       Br687   1.919       .  S
C691        C696   1.412       .  A
C691       Br698   1.924       .  S
C692        C693   1.408       .  A
C693        C694   1.407       .  A
C693       Br700   1.926       .  S
C694        C695   1.406       .  A
C694       Br699   1.925       .  S
C696       Br697   1.923       .  S
C701        C702   1.419       .  A
C701        C706   1.410       .  A
C701       Br708   1.931       .  S
C703        C704   1.412       .  A
C703       Br710   1.939       .  S
C704       Br709   1.934       .  S
C705        C706   1.411       .  A
C706       Br707   1.932       .  S
C711        C712   1.412       .  A
C711        C716   1.413       .  A
C711       Br718   1.921       .  S
C713        C714   1.404       .  A
C713       Br720   1.927       .  S
C714       Br719   1.924       .  S
C715        C716   1.406       .  A
C716       Br717   1.924       .  S
C721        C722   1.412       .  A
C721        C726   1.415       .  A
C721       Br728   1.920       .  S
C723        C724   1.402       .  A
C723       Br730   1.923       .  S
C724       Br729   1.922       .  S
C725        C726   1.407       .  A
C726       Br727   1.924       .  S
C731        C732   1.417       .  A
C731        C736   1.407       .  A
C731       Br738   1.930       .  S
C733        C734   1.411       .  A
C733       Br740   1.937       .  S
C734       Br739   1.933       .  S
C735        C736   1.408       .  A
C736       Br737   1.931       .  S
C741        C742   1.406       .  A
C741        C746   1.403       .  A
C741       Br748   1.920       .  S
C742        C743   1.407       .  A
C743        C744   1.413       .  A
C743       Br750   1.926       .  S
C744        C745   1.412       .  A
C744       Br749   1.919       .  S
C745        C746   1.411       .  A
C746       Br747   1.930       .  S
C751        C752   1.416       .  A
C751        C756   1.408       .  A
C751       Br758   1.927       .  S
C752        C753   1.417       .  A
C753        C754   1.406       .  A
C753       Br760   1.938       .  S
C754        C755   1.413       .  A
C754       Br759   1.932       .  S
C755        C756   1.409       .  A
C756       Br757   1.932       .  S
C761        C762   1.416       .  A
C761        C766   1.408       .  A
C761       Br768   1.927       .  S
C762        C763   1.417       .  A
C763        C764   1.408       .  A
C763       Br770   1.937       .  S
C764        C765   1.411       .  A
C764       Br769   1.930       .  S
C765        C766   1.409       .  A
C766       Br767   1.931       .  S
C771        C772   1.407       .  A
C771        C776   1.401       .  A
C771       Br778   1.928       .  S
C772        C773   1.414       .  A
C773        C774   1.415       .  A
C773       Br780   1.917       .  S
C774        C775   1.407       .  A
C774       Br779   1.926       .  S
C775        C776   1.406       .  A
C776       Br777   1.919       .  S
O781       Ni789   1.922       .  S
O781        C791   1.282       .  A
O782        C792   1.282       .  A
O783       Ni789   1.926       .  S
O783        C793   1.282       .  A
O784        C794   1.283       .  A
O785       Ni790   1.921   1_556  S
O785        C794   1.281       .  A
O786        C793   1.283       .  A
O787       Ni790   1.912   1_556  S
O787        C792   1.280       .  A
O788        C791   1.281       .  A
C791       C1012   1.489       .  S
C792       C1022   1.488       .  S
C793       C1032   1.484       .  S
C794       C1005   1.484       .  S
O795        C805   1.281       .  A
O796       Ni803   1.931       .  S
O796        C806   1.284       .  A
O797        C807   1.282       .  A
O798       Ni803   1.922   1_545  S
O798        C808   1.282       .  A
O799       Ni804   1.918       .  S
O801       Ni804   1.919   1_565  S
C805        C982   1.481       .  S
C806        C972   1.484       .  S
C807        C962   1.499       .  S
C808        C992   1.492       .  S
C809        C811   1.558       .  S
C809        C813   1.533       .  S
C809        C812   1.549       .  S
C809        C935   1.543       .  S
C810        C814   1.541       .  S
C810        C816   1.520       .  S
C810        C815   1.545       .  S
C810        C942   1.536       .  S
C811        C819   1.390       .  A
C812        C823   1.384       .  A
C813        C827   1.380       .  A
C814        C817   1.381       .  A
C815        C821   1.380       .  A
C816        C824   1.374       .  A
C817        N818   1.350       .  A
C817        H830   1.081       .  S
N818        C952   1.438       .  S
C819        H820   1.083       .  S
C821        N822   1.356       .  A
C821        H831   1.084       .  S
N822        C985   1.438       .  S
C823        H829   1.080       .  S
C824        N825   1.355       .  A
C824        H826   1.083       .  S
N825        C995   1.443       .  S
C827        H828   1.082       .  S
C832        C834   1.557       .  S
C832        C836   1.531       .  S
C832        C835   1.549       .  S
C832        C922   1.539       .  S
C833        C837   1.544       .  S
C833        C839   1.548       .  S
C833        C838   1.529       .  S
C833        C915   1.534       .  S
C834        C842   1.389       .  A
C835        C846   1.384       .  A
C836        C850   1.378       .  A
C837        C840   1.379       .  A
C838        C844   1.376       .  A
C839        C847   1.385       .  A
C840        H853   1.083       .  S
N841        C842   1.360       .  A
N841        C955   1.440       .  S
C842        H843   1.081       .  S
C844        H854   1.083       .  S
N845        C846   1.362       .  A
N845        C965   1.450       .  S
C846        H852   1.081       .  S
C847        H849   1.080       .  S
N848        C850   1.354       .  A
N848        C975   1.438       .  S
C850        H851   1.085       .  S
C855        C857   1.547       .  S
C855        C859   1.548       .  S
C855        C858   1.526       .  S
C855        C912   1.533       .  S
C856        C860   1.558       .  S
C856        C862   1.533       .  S
C856        C861   1.547       .  S
C856        C925   1.537       .  S
C857        C865   1.381       .  A
C857        C860   1.399       .  A
C858        C869   1.373       .  A
C858        C861   1.389       .  A
C859        C873   1.385       .  A
C859        C862   1.390       .  A
C860        C863   1.390       .  A
C861        C867   1.383       .  A
C862        C870   1.380       .  A
C863        N864   1.360       .  A
C863        H876   1.080       .  S
N864        C865   1.355       .  A
N864        C905   1.443       .  S
C865        H866   1.084       .  S
C867        N868   1.360       .  A
C867        H877   1.082       .  S
N868        C869   1.355       .  A
N868       C1015   1.443       .  S
C869        H875   1.082       .  S
C870        N871   1.356       .  A
C870        H872   1.082       .  S
N871        C873   1.358       .  A
N871       C1002   1.440       .  S
C873        H874   1.082       .  S
C878        C880   1.545       .  S
C878        C882   1.519       .  S
C878        C881   1.548       .  S
C878        C945   1.536       .  S
C879        C883   1.559       .  S
C879        C885   1.537       .  S
C879        C884   1.547       .  S
C879        C932   1.544       .  S
C880        C888   1.385       .  A
C880        C883   1.408       .  A
C881        C892   1.381       .  A
C881        C884   1.397       .  A
C882        C896   1.372       .  A
C882        C885   1.379       .  A
C883        C886   1.391       .  A
C884        C890   1.383       .  A
C885        C893   1.383       .  A
C886        N887   1.357       .  A
C886        H899   1.083       .  S
N887        C888   1.352       .  A
N887        C902   1.443       .  S
C888        H889   1.081       .  S
C890        N891   1.356       .  A
C890        H900   1.083       .  S
N891        C892   1.359       .  A
N891       C1035   1.440       .  S
C892        H898   1.081       .  S
C893        N894   1.364       .  A
C893        H895   1.081       .  S
N894        C896   1.354       .  A
N894       C1025   1.443       .  S
C896        H897   1.084       .  S
C901        C902   1.409       .  A
C901        C906   1.408   1_545  A
C901       Br908   1.925       .  S
C902        C903   1.409       .  A
C903        C904   1.416   1_545  A
C903       Br910   1.924       .  S
C904        C905   1.411       .  A
C904       Br909   1.924       .  S
C905        C906   1.407       .  A
C906       Br907   1.926       .  S
C911        C912   1.412       .  A
C911        C916   1.399       .  A
C911       Br918   1.932       .  S
C912        C913   1.409       .  A
C913        C914   1.393       .  A
C913       Br920   1.919       .  S
C914        C915   1.413       .  A
C914       Br919   1.933       .  S
C915        C916   1.415       .  A
C916       Br917   1.922       .  S
C921        C922   1.417       .  A
C921        C926   1.401       .  A
C921       Br928   1.933       .  S
C922        C923   1.416       .  A
C923        C924   1.400       .  A
C923       Br930   1.931       .  S
C924        C925   1.414       .  A
C924       Br929   1.933       .  S
C925        C926   1.415       .  A
C926       Br927   1.934       .  S
C931        C932   1.420       .  A
C931        C936   1.403       .  A
C931       Br938   1.933       .  S
C932        C933   1.418       .  A
C933        C934   1.405       .  A
C933       Br940   1.931       .  S
C934        C935   1.415       .  A
C934       Br939   1.927       .  S
C935        C936   1.411       .  A
C936       Br937   1.931       .  S
C941        C942   1.416       .  A
C941        C946   1.399       .  A
C941       Br948   1.935       .  S
C942        C943   1.420       .  A
C943        C944   1.399       .  A
C943       Br950   1.926       .  S
C944        C945   1.411       .  A
C944       Br949   1.935       .  S
C945        C946   1.414       .  A
C946       Br947   1.920       .  S
C951        C956   1.412       .  A
C951       Br958   1.924       .  S
C952        C953   1.409       .  A
C953        C954   1.408       .  A
C953       Br960   1.926       .  S
C954        C955   1.407       .  A
C954       Br959   1.925       .  S
C956       Br957   1.923       .  S
C961        C962   1.419       .  A
C961        C966   1.410       .  A
C961       Br968   1.931       .  S
C963        C964   1.413       .  A
C963       Br970   1.939       .  S
C964       Br969   1.934       .  S
C965        C966   1.411       .  A
C966       Br967   1.932       .  S
C971        C972   1.412       .  A
C971        C976   1.413       .  A
C971       Br978   1.921       .  S
C973        C974   1.404       .  A
C973       Br980   1.927       .  S
C974       Br979   1.925       .  S
C975        C976   1.407       .  A
C976       Br977   1.925       .  S
C981        C982   1.412       .  A
C981        C986   1.414       .  A
C981       Br988   1.920       .  S
C983        C984   1.402       .  A
C983       Br990   1.923       .  S
C984       Br989   1.922       .  S
C985        C986   1.407       .  A
C986       Br987   1.924       .  S
C991        C992   1.417       .  A
C991        C996   1.407       .  A
C991       Br998   1.930       .  S
C993        C994   1.411       .  A
C993      Br1000   1.937       .  S
C994       Br999   1.933       .  S
C995        C996   1.408       .  A
C996       Br997   1.931       .  S
C1001      C1002   1.406       .  A
C1001      C1006   1.404       .  A
C1001     Br1008   1.920       .  S
C1002      C1003   1.407       .  A
C1003      C1004   1.412       .  A
C1003     Br1010   1.926       .  S
C1004      C1005   1.412       .  A
C1004     Br1009   1.917       .  S
C1005      C1006   1.410       .  A
C1006     Br1007   1.930       .  S
C1011      C1012   1.417       .  A
C1011      C1016   1.409       .  A
C1011     Br1018   1.927       .  S
C1012      C1013   1.417       .  A
C1013      C1014   1.407       .  A
C1013     Br1020   1.938       .  S
C1014      C1015   1.412       .  A
C1014     Br1019   1.932       .  S
C1015      C1016   1.409       .  A
C1016     Br1017   1.931       .  S
C1021      C1022   1.416       .  A
C1021      C1026   1.408       .  A
C1021     Br1028   1.928       .  S
C1022      C1023   1.417       .  A
C1023      C1024   1.409       .  A
C1023     Br1030   1.938       .  S
C1024      C1025   1.413       .  A
C1024     Br1029   1.930       .  S
C1025      C1026   1.410       .  A
C1026     Br1027   1.931       .  S
C1031      C1032   1.407       .  A
C1031      C1036   1.401       .  A
C1031     Br1038   1.927       .  S
C1032      C1033   1.413       .  A
C1033      C1034   1.415       .  A
C1033     Br1040   1.917       .  S
C1034      C1035   1.407       .  A
C1034     Br1039   1.926       .  S
C1035      C1036   1.406       .  A
C1036     Br1037   1.919       .  S
