geometry optimzed in LAMMPS
_audit_creation_date              2020-11-30 
_audit_creation_method            'lammps2cif' 
_symmetry_space_group_name_H-M    'P1' 
_symmetry_Int_Tables_number       1 
_symmetry_cell_setting            triclinic 
loop_ 
_symmetry_equiv_pos_as_xyz 
  x,y,z 
_cell_length_a                    59.13923527 
_cell_length_b                    59.16744237206182 
_cell_length_c                    59.117660544373265 
_cell_angle_alpha                 89.94707879440352 
_cell_angle_beta                  89.97513463370053 
_cell_angle_gamma                 90.0477555601385 
loop_ 
_atom_site_label 
_atom_site_type_symbol 
_atom_site_fract_x 
_atom_site_fract_y 
_atom_site_fract_z 
_atom_site_charge 
C1          C  0.54246940  0.89855844  0.74788773     0.04200
C2          C  0.52009312  0.89164786  0.74381928    -0.12000
C3          C  0.51529185  0.86937989  0.73770091     0.01700
C4          C  0.53286440  0.85383015  0.73558007    -0.10500
C5          C  0.55535538  0.86030674  0.73951280     0.04200
C6          C  0.56013930  0.88276651  0.74567936    -0.09900
H7          H  0.50631098  0.90364094  0.74538997     0.09800
H8          H  0.52902779  0.83670949  0.73029992     0.07300
H9          H  0.57743807  0.88793287  0.74855302     0.07200
C10         C  0.54230959  0.06261528  0.78980061     0.04200
C11         C  0.51998751  0.07012191  0.79287983    -0.12000
C12         C  0.51540510  0.09306928  0.79668197     0.01700
C13         C  0.53343724  0.10844254  0.79744443    -0.10500
C14         C  0.55579132  0.10110815  0.79457589     0.04200
C15         C  0.56022349  0.07815987  0.79087556    -0.09900
H16         H  0.50614730  0.05819716  0.79149334     0.09800
H17         H  0.53009298  0.12624741  0.80027137     0.07300
H18         H  0.57746122  0.07250346  0.78843529     0.07200
C19         C  0.89930260  0.70814086  0.56539593     0.04200
C20         C  0.88203087  0.70880664  0.58176986    -0.12000
C21         C  0.85959338  0.70370920  0.57572130     0.01700
C22         C  0.85473840  0.69793855  0.55321272    -0.10500
C23         C  0.87165920  0.69792948  0.53675094     0.04200
C24         C  0.89392218  0.70286535  0.54289049    -0.09900
H25         H  0.88605093  0.71338769  0.59900805     0.09800
H26         H  0.83755321  0.69377962  0.54831511     0.07300
H27         H  0.90706428  0.70268400  0.53010994     0.07200
C28         C  0.06359518  0.74794523  0.57081645     0.04200
C29         C  0.07882649  0.75004896  0.58893163    -0.12000
C30         C  0.10165920  0.75509843  0.58480462     0.01700
C31         C  0.10911931  0.75836166  0.56246137    -0.10500
C32         C  0.09391018  0.75673552  0.54436220     0.04200
C33         C  0.07127400  0.75148617  0.54864047    -0.09900
H34         H  0.07294257  0.74790858  0.60616708     0.09800
H35         H  0.12657544  0.76280338  0.55921834     0.07300
H36         H  0.05959319  0.74999290  0.53456110     0.07200
C37         C  0.55938141  0.71249929  0.43252881     0.04200
C38         C  0.57581274  0.71001132  0.41546831    -0.12000
C39         C  0.59834852  0.70510253  0.42129908     0.01700
C40         C  0.60439910  0.70328978  0.44417285    -0.10500
C41         C  0.58837356  0.70659767  0.46132275     0.04200
C42         C  0.56587661  0.71106148  0.45532513    -0.09900
H43         H  0.57097592  0.71117910  0.39783344     0.09800
H44         H  0.62165061  0.69900626  0.44858155     0.07300
H45         H  0.55332901  0.71357025  0.46846508     0.07200
C46         C  0.39463857  0.75175225  0.43465237     0.04200
C47         C  0.38714161  0.75487958  0.45700762    -0.12000
C48         C  0.36415352  0.75837905  0.46182439     0.01700
C49         C  0.34849636  0.75850981  0.44392692    -0.10500
C50         C  0.35562701  0.75530218  0.42144561     0.04200
C51         C  0.37873510  0.75202327  0.41694229    -0.09900
H52         H  0.39918755  0.75422482  0.47080265     0.09800
H53         H  0.33085056  0.76185239  0.44739313     0.07300
H54         H  0.38434597  0.74972604  0.39962467     0.07200
C55         C  0.70249068  0.54999871  0.91870167     0.04200
C56         C  0.69867845  0.52758898  0.91181665    -0.12000
C57         C  0.69501979  0.52243330  0.88900939     0.01700
C58         C  0.69551646  0.53973582  0.87293812    -0.10500
C59         C  0.69954692  0.56216102  0.87938433     0.04200
C60         C  0.70298120  0.56729405  0.90233796    -0.09900
H61         H  0.69920440  0.51403979  0.92410018     0.09800
H62         H  0.69267998  0.53571124  0.85524763     0.07300
H63         H  0.70631987  0.58457716  0.90739136     0.07200
C64         C  0.74585378  0.54976531  0.08225611     0.04200
C65         C  0.74716200  0.56788171  0.09746819    -0.12000
C66         C  0.75215088  0.56384609  0.12023025     0.01700
C67         C  0.75504110  0.54166871  0.12796099    -0.10500
C68         C  0.75323363  0.52340586  0.11304827     0.04200
C69         C  0.74899719  0.52754335  0.09006952    -0.09900
H70         H  0.74489809  0.58506705  0.09150189     0.09800
H71         H  0.75903443  0.53866893  0.14558829     0.07300
H72         H  0.74777695  0.51349883  0.07835384     0.07200
Zn73       Zn  0.64968820  0.32955174  0.80376626     1.49700
Zn74       Zn  0.67605323  0.28171750  0.80345986     1.49400
Zn75       Zn  0.67488984  0.31294290  0.84805509     1.49100
Zn76       Zn  0.63017116  0.28909873  0.83273114     1.49500
O77         O  0.65783878  0.30313852  0.82176356    -1.83100
O78         O  0.66259703  0.32700824  0.77271061    -0.73700
O79         O  0.70686177  0.27623215  0.81813379    -0.73500
O80         O  0.67777483  0.34645349  0.84891907    -0.73000
O81         O  0.68120228  0.29433881  0.77149602    -0.73700
O82         O  0.66050647  0.35862088  0.81800306    -0.73300
O83         O  0.70562873  0.29955006  0.84755796    -0.73900
O84         O  0.62813034  0.28888874  0.86677034    -0.73300
O85         O  0.66008641  0.25116990  0.80164357    -0.74000
O86         O  0.66055528  0.30392594  0.87761096    -0.73400
O87         O  0.62966867  0.25702005  0.82288426    -0.73900
O88         O  0.60219414  0.30428844  0.82054710    -0.73800
O89         O  0.61614717  0.33239558  0.80016810    -0.73600
C90         C  0.67447001  0.31258021  0.76208223     0.78200
C91         C  0.71602042  0.28507407  0.83554430     0.78700
C92         C  0.67118675  0.36253367  0.83626890     0.77700
C93         C  0.64165131  0.29489011  0.88240452     0.78000
C94         C  0.64191843  0.24403859  0.81088431     0.79200
C95         C  0.59932354  0.32140771  0.80780604     0.78200
Zn96       Zn  0.28169491  0.81471080  0.65467076     1.49700
Zn97       Zn  0.30645126  0.83370595  0.69811033     1.49400
Zn98       Zn  0.27898459  0.78692192  0.70229408     1.49100
Zn99       Zn  0.32538229  0.79067730  0.67330448     1.49500
O100        O  0.29789164  0.80629268  0.68222184    -1.83100
O101        O  0.27956994  0.84853553  0.65094518    -0.73700
O102        O  0.29233222  0.83424056  0.72859073    -0.73500
O103        O  0.24763237  0.78331231  0.68837984    -0.73000
O104        O  0.29610421  0.86146126  0.68187182    -0.73700
O105        O  0.24989616  0.80347984  0.65664429    -0.73300
O106        O  0.27403342  0.80188228  0.73334516    -0.73900
O107        O  0.32478750  0.75966315  0.68584619    -0.73300
O108        O  0.34004041  0.83647535  0.70224566    -0.74000
O109        O  0.29367192  0.75559543  0.70639785    -0.73400
O110        O  0.35330107  0.80574279  0.68543592    -0.73900
O111        O  0.32870647  0.78788625  0.63942135    -0.73800
O112        O  0.29673400  0.80230850  0.62639200    -0.73600
C113        C  0.28581125  0.86496711  0.66332265     0.78200
C114        C  0.28023961  0.82120097  0.74071056     0.78700
C115        C  0.23859845  0.79155464  0.67058036     0.77700
C116        C  0.31208546  0.74763570  0.69832321     0.78000
C117        C  0.35649036  0.82395771  0.69639140     0.79200
C118        C  0.31575894  0.79277375  0.62294414     0.78200
C119        C  0.04786518  0.56635744  0.26618593     0.04200
C120        C  0.02568666  0.57282159  0.27174383    -0.12000
C121        C  0.02011199  0.59543098  0.27564695     0.01700
C122        C  0.03707835  0.61189872  0.27468472    -0.10500
C123        C  0.05948861  0.60599016  0.26941301     0.04200
C124        C  0.06483229  0.58312181  0.26518409    -0.09900
H125        H  0.01247332  0.56015519  0.27286716     0.09800
H126        H  0.03279666  0.62937063  0.27794173     0.07300
H127        H  0.08197652  0.57858045  0.26063097     0.07200
C128        C  0.04306965  0.39799219  0.24704328     0.04200
C129        C  0.06045197  0.38177187  0.24772089    -0.12000
C130        C  0.05587679  0.35892486  0.24287627     0.01700
C131        C  0.03384029  0.35256259  0.23668246    -0.10500
C132        C  0.01637659  0.36840686  0.23616329     0.04200
C133        C  0.02097874  0.39107238  0.24135845    -0.09900
H134        H  0.07749299  0.38691964  0.25215241     0.09800
H135        H  0.03023459  0.33525667  0.23199554     0.07300
H136        H  0.00746702  0.40338570  0.24040440     0.07200
Zn137      Zn  0.79409553  0.68592299  0.33701730     1.49700
Zn138      Zn  0.82004518  0.63840857  0.33603659     1.49400
Zn139      Zn  0.77223827  0.64291292  0.31279086     1.49100
Zn140      Zn  0.81574468  0.66776337  0.29094871     1.49500
O141        O  0.80049013  0.65886851  0.31911904    -1.83100
O142        O  0.80930149  0.68379264  0.36733129    -0.73700
O143        O  0.80610017  0.60777321  0.34088971    -0.73500
O144        O  0.74557990  0.65908078  0.32654878    -0.73000
O145        O  0.82713611  0.65089559  0.36653853    -0.73700
O146        O  0.76045311  0.68924253  0.34307344    -0.73300
O147        O  0.77220379  0.61115811  0.32554111    -0.73900
O148        O  0.79785160  0.65686960  0.26419389    -0.73300
O149        O  0.84942775  0.63390495  0.32018572    -0.74000
O150        O  0.76788429  0.63988307  0.27925521    -0.73400
O151        O  0.84706590  0.65393746  0.28863003    -0.73900
O152        O  0.82007949  0.70165376  0.28900078    -0.73800
O153        O  0.80646545  0.71400280  0.32177562    -0.73600
C154        C  0.82183205  0.66902745  0.37672646     0.78200
C155        C  0.78686346  0.59945559  0.33610980     0.78700
C156        C  0.74336223  0.67698552  0.33830961     0.77700
C157        C  0.77951088  0.64574391  0.26208784     0.78000
C158        C  0.85807562  0.64090563  0.30177063     0.79200
C159        C  0.81636032  0.71763017  0.30295023     0.78200
C160        C  0.89275477  0.25632691  0.93933967     0.04200
C161        C  0.88535703  0.26108480  0.96140569    -0.12000
C162        C  0.86232838  0.26443307  0.96597170     0.01700
C163        C  0.84666547  0.26290787  0.94827939    -0.10500
C164        C  0.85375965  0.25810796  0.92613035     0.04200
C165        C  0.87683497  0.25464822  0.92180494    -0.09900
H166        H  0.89744336  0.26151238  0.97516249     0.09800
H167        H  0.82888594  0.26574373  0.95174257     0.07300
H168        H  0.88241277  0.25051201  0.90484937     0.07200
C169        C  0.05724428  0.21822800  0.93993609     0.04200
C170        C  0.07299863  0.21727795  0.92213962    -0.12000
C171        C  0.09596907  0.21379264  0.92677799     0.01700
C172        C  0.10320365  0.21116482  0.94920740    -0.10500
C173        C  0.08766272  0.21217896  0.96707254     0.04200
C174        C  0.06482280  0.21615411  0.96234699    -0.09900
H175        H  0.06740576  0.21898231  0.90475996     0.09800
H176        H  0.12098579  0.20841082  0.95272808     0.07300
H177        H  0.05289821  0.21742254  0.97618036     0.07200
Zn178      Zn  0.82339020  0.29134891  0.17557562     1.49700
Zn179      Zn  0.80553357  0.33365452  0.20251641     1.49400
Zn180      Zn  0.77890123  0.31572785  0.15927334     1.49100
Zn181      Zn  0.77784746  0.28618553  0.20528348     1.49500
O182        O  0.79620412  0.30663116  0.18590314    -1.83100
O183        O  0.85200934  0.30661759  0.18595291    -0.73700
O184        O  0.79394370  0.36218153  0.18763668    -0.73500
O185        O  0.79286913  0.30475148  0.13000774    -0.73000
O186        O  0.83961784  0.33648554  0.20465247    -0.73700
O187        O  0.82474367  0.28927852  0.14185163    -0.73300
O188        O  0.77625485  0.34940651  0.15720088    -0.73900
O189        O  0.74609327  0.28210586  0.19192445    -0.73300
O190        O  0.79332319  0.33225616  0.23411319    -0.74000
O191        O  0.74751301  0.30358048  0.16107966    -0.73400
O192        O  0.77446316  0.29985962  0.23696948    -0.73900
O193        O  0.79283450  0.25490607  0.20777598    -0.73800
O194        O  0.82369570  0.25976215  0.18698174    -0.73600
C195        C  0.85588946  0.32450085  0.19725416     0.78200
C196        C  0.78276153  0.36573325  0.16956047     0.78700
C197        C  0.81148749  0.29481174  0.12585540     0.77700
C198        C  0.73671408  0.29059782  0.17441457     0.78000
C199        C  0.78162011  0.31831115  0.24563940     0.79200
C200        C  0.81112794  0.24726631  0.19919184     0.78200
C201        C  0.39636755  0.22324758  0.07210471     0.04200
C202        C  0.39013981  0.21912805  0.04959772    -0.12000
C203        C  0.36777811  0.21402153  0.04406589     0.01700
C204        C  0.35156536  0.21291063  0.06119327    -0.10500
C205        C  0.35720462  0.21745593  0.08382563     0.04200
C206        C  0.37981246  0.22278713  0.08924010    -0.09900
H207        H  0.40276514  0.22004077  0.03633388     0.09800
H208        H  0.33436827  0.20826790  0.05679066     0.07300
H209        H  0.38456407  0.22637199  0.10653013     0.07200
C210        C  0.56382697  0.25057546  0.06941546     0.04200
C211        C  0.57916017  0.25125763  0.08753955    -0.12000
C212        C  0.60210833  0.25596715  0.08367786     0.01700
C213        C  0.60947626  0.26112748  0.06167231    -0.10500
C214        C  0.59433350  0.26085538  0.04338141     0.04200
C215        C  0.57172875  0.25474551  0.04738971    -0.09900
H216        H  0.57325731  0.24849913  0.10465039     0.09800
H217        H  0.62692293  0.26603602  0.05894956     0.07300
H218        H  0.56006987  0.25342250  0.03332238     0.07200
C219        C  0.23642242  0.92303448  0.91724546     0.04200
C220        C  0.23788483  0.94543611  0.90937848    -0.12000
C221        C  0.24082412  0.95002382  0.88623551     0.01700
C222        C  0.24213933  0.93191388  0.87096932    -0.10500
C223        C  0.24084222  0.90949524  0.87859151     0.04200
C224        C  0.23792185  0.90511539  0.90172592    -0.09900
H225        H  0.23698885  0.95923214  0.92128009     0.09800
H226        H  0.24467390  0.93524486  0.85308653     0.07300
H227        H  0.23695532  0.88778459  0.90765034     0.07200
C228        C  0.20439410  0.91900312  0.08338002     0.04200
C229        C  0.20287100  0.94158457  0.09054078    -0.12000
C230        C  0.20035814  0.94680980  0.11350402     0.01700
C231        C  0.19970672  0.92930176  0.12944553    -0.10500
C232        C  0.20145093  0.90667958  0.12267755     0.04200
C233        C  0.20375207  0.90152968  0.09956456    -0.09900
H234        H  0.20324270  0.95506666  0.07819519     0.09800
H235        H  0.19724817  0.93327342  0.14718303     0.07300
H236        H  0.20475515  0.88403063  0.09418892     0.07200
Zn237      Zn  0.31434889  0.14901930  0.84730309     1.49700
Zn238      Zn  0.29032590  0.19725995  0.84361964     1.49400
Zn239      Zn  0.31487938  0.17561644  0.80086631     1.49100
Zn240      Zn  0.26838846  0.15458652  0.81867891     1.49500
O241        O  0.29687073  0.16906175  0.82766022    -1.83100
O242        O  0.31748470  0.16216644  0.87839775    -0.73700
O243        O  0.30273112  0.22443319  0.82699982    -0.73500
O244        O  0.34583499  0.16167992  0.80215010    -0.73000
O245        O  0.30442687  0.19712586  0.87444942    -0.73700
O246        O  0.34623078  0.14447737  0.83550784    -0.73300
O247        O  0.31989003  0.20878838  0.79758897    -0.73900
O248        O  0.26613947  0.15189681  0.78442181    -0.73300
O249        O  0.25687990  0.20075258  0.84895838    -0.74000
O250        O  0.29978199  0.16417938  0.77296509    -0.73400
O251        O  0.24136185  0.17148612  0.83128011    -0.73900
O252        O  0.26687776  0.12282029  0.83148808    -0.73800
O253        O  0.29899695  0.11876801  0.85036413    -0.73600
C254        C  0.31370471  0.18178247  0.88632132     0.78200
C255        C  0.31465943  0.22613064  0.80912317     0.78700
C256        C  0.35609421  0.15033928  0.81725302     0.77700
C257        C  0.28055336  0.15551442  0.76875558     0.78000
C258        C  0.23958395  0.18913839  0.84350896     0.79200
C259        C  0.28015392  0.11086189  0.84356282     0.78200
C260        C  0.21460561  0.05073317  0.42303546     0.04200
C261        C  0.21119434  0.02773827  0.41826175    -0.12000
C262        C  0.20802450  0.02040834  0.39600554     0.01700
C263        C  0.20793025  0.03624728  0.37838939    -0.10500
C264        C  0.21109218  0.05935202  0.38276933     0.04200
C265        C  0.21445814  0.06654176  0.40522248    -0.09900
H266        H  0.21118710  0.01546339  0.43190218     0.09800
H267        H  0.20453245  0.03061481  0.36128736     0.07300
H268        H  0.21662221  0.08435365  0.40884476     0.07200
C269        C  0.24802439  0.05500436  0.58842207     0.04200
C270        C  0.25081918  0.03239496  0.59511414    -0.12000
C271        C  0.25654046  0.02687398  0.61744491     0.01700
C272        C  0.25960737  0.04435928  0.63309176    -0.10500
C273        C  0.25593615  0.06700434  0.62703753     0.04200
C274        C  0.25029695  0.07233114  0.60455285    -0.09900
H275        H  0.24846277  0.01901844  0.58279109     0.09800
H276        H  0.26496939  0.04040940  0.65014995     0.07300
H277        H  0.24769870  0.08974493  0.59964934     0.07200
Zn278      Zn  0.18439322  0.14757999  0.19034632     1.49700
Zn279      Zn  0.16419837  0.19286872  0.16905354     1.49400
Zn280      Zn  0.13684488  0.14663206  0.16480226     1.49100
Zn281      Zn  0.14050794  0.17091621  0.21264501     1.49500
O282        O  0.15653238  0.16452891  0.18433666    -1.83100
O283        O  0.21204180  0.16425174  0.17892431    -0.73700
O284        O  0.14988019  0.19466695  0.13820291    -0.73500
O285        O  0.15034299  0.11640224  0.15762130    -0.73000
O286        O  0.19782842  0.19588818  0.16465399    -0.73700
O287        O  0.18364296  0.11726604  0.17468554    -0.73300
O288        O  0.13114177  0.16239693  0.13545595    -0.73900
O289        O  0.10879680  0.15763389  0.21261718    -0.73300
O290        O  0.15303788  0.21962273  0.18664343    -0.74000
O291        O  0.10665134  0.14103757  0.17911153    -0.73400
O292        O  0.13761758  0.20474992  0.21754214    -0.73900
O293        O  0.15686346  0.15653069  0.23882510    -0.73800
O294        O  0.18772968  0.14115612  0.22377678    -0.73600
C295        C  0.21466623  0.18322144  0.16902453     0.78200
C296        C  0.13722867  0.18127176  0.12711600     0.78700
C297        C  0.16907336  0.10707895  0.16251889     0.77700
C298        C  0.09782340  0.14621046  0.19803086     0.78000
C299        C  0.14278405  0.22186073  0.20543694     0.79200
C300        C  0.17503233  0.14512035  0.24073599     0.78200
C301        C  0.90861719  0.90243453  0.27651564     0.04200
C302        C  0.93127381  0.89691994  0.28106606    -0.12000
C303        C  0.93776636  0.87444782  0.28448711     0.01700
C304        C  0.92158756  0.85723677  0.28283454    -0.10500
C305        C  0.89899664  0.86219765  0.27746602     0.04200
C306        C  0.89254925  0.88493597  0.27453972    -0.09900
H307        H  0.94397134  0.91011778  0.28174896     0.09800
H308        H  0.92667736  0.83990123  0.28564246     0.07300
H309        H  0.87509967  0.88900473  0.27066247     0.07200
C310        C  0.90892956  0.06581526  0.23389991     0.04200
C311        C  0.89159205  0.08206350  0.23233881    -0.12000
C312        C  0.89683410  0.10473102  0.22734430     0.01700
C313        C  0.91948572  0.11095728  0.22395508    -0.10500
C314        C  0.93696501  0.09515618  0.22613187     0.04200
C315        C  0.93153775  0.07261067  0.23106736    -0.09900
H316        H  0.87419951  0.07710803  0.23511013     0.09800
H317        H  0.92349656  0.12825033  0.21940777     0.07300
H318        H  0.94501890  0.06036702  0.23314052     0.07200
Zn319      Zn  0.17377026  0.81131507  0.35213810     1.49700
Zn320      Zn  0.17594145  0.78710381  0.30303151     1.49400
Zn321      Zn  0.12960131  0.78786500  0.33282762     1.49100
Zn322      Zn  0.14780183  0.83315054  0.31115947     1.49500
O323        O  0.15697663  0.80456519  0.32457240    -1.83100
O324        O  0.20529968  0.79977562  0.34966792    -0.73700
O325        O  0.16152801  0.75580344  0.29761751    -0.73500
O326        O  0.12666938  0.78391735  0.36667128    -0.73000
O327        O  0.20817419  0.78292038  0.31616430    -0.73700
O328        O  0.15897053  0.79778046  0.37956275    -0.73300
O329        O  0.13071588  0.75705248  0.31922096    -0.73900
O330        O  0.11422007  0.83564588  0.30828088    -0.73300
O331        O  0.17799761  0.80403384  0.27246249    -0.74000
O332        O  0.10116348  0.80317121  0.32147893    -0.73400
O333        O  0.15947830  0.83576114  0.27979461    -0.73900
O334        O  0.15873896  0.85994159  0.32885391    -0.73800
O335        O  0.17633282  0.84470591  0.35810450    -0.73600
C336        C  0.21690735  0.78928760  0.33492189     0.78200
C337        C  0.14371299  0.74652953  0.30569813     0.78700
C338        C  0.13998191  0.78823240  0.38302523     0.77700
C339        C  0.09779402  0.82239933  0.31240645     0.78000
C340        C  0.17046836  0.82332587  0.26619032     0.79200
C341        C  0.16968387  0.86202226  0.34725983     0.78200
C342        C  0.41410574  0.40361069  0.76454404     0.04200
C343        C  0.43639460  0.39546633  0.76591120    -0.12000
C344        C  0.44074620  0.37287154  0.77156242     0.01700
C345        C  0.42251782  0.35821804  0.77541009    -0.10500
C346        C  0.40023669  0.36609763  0.77390443     0.04200
C347        C  0.39602631  0.38877554  0.76870874    -0.09900
H348        H  0.45047075  0.40683615  0.76284937     0.09800
H349        H  0.42560438  0.34081681  0.78019969     0.07300
H350        H  0.37877288  0.39485184  0.76835039     0.07200
C351        C  0.41068879  0.56920627  0.73011858     0.04200
C352        C  0.39314906  0.58515269  0.73084265    -0.12000
C353        C  0.39769780  0.60814143  0.72709012     0.01700
C354        C  0.41991187  0.61502185  0.72188194    -0.10500
C355        C  0.43752081  0.59915775  0.72093316     0.04200
C356        C  0.43276840  0.57637890  0.72521422    -0.09900
H357        H  0.37598991  0.57972290  0.73428064     0.09800
H358        H  0.42349725  0.63267889  0.71865879     0.07300
H359        H  0.44641220  0.56414186  0.72481154     0.07200
C360        C  0.74198788  0.41699847  0.42210203     0.04200
C361        C  0.74127714  0.39837403  0.40725330    -0.12000
C362        C  0.74277014  0.40153669  0.38372310     0.01700
C363        C  0.74550747  0.42349292  0.37511464    -0.10500
C364        C  0.74632377  0.44224016  0.38957298     0.04200
C365        C  0.74413880  0.43890812  0.41298771    -0.09900
H366        H  0.73987319  0.38137362  0.41399178     0.09800
H367        H  0.74768830  0.42596141  0.35708787     0.07300
H368        H  0.74462039  0.45337450  0.42413543     0.07200
C369        C  0.71908248  0.41792010  0.59068073     0.04200
C370        C  0.71496527  0.44017267  0.59777375    -0.12000
C371        C  0.71064905  0.44497487  0.62060773     0.01700
C372        C  0.71012265  0.42715406  0.63631116    -0.10500
C373        C  0.71463330  0.40477811  0.62955700     0.04200
C374        C  0.71924474  0.40035710  0.60663061    -0.09900
H375        H  0.71462422  0.45368191  0.58538965     0.09800
H376        H  0.70579645  0.43071900  0.65373829     0.07300
H377        H  0.72239390  0.38318566  0.60107264     0.07200
Zn378      Zn  0.66523256  0.69348628  0.66324401     1.49700
Zn379      Zn  0.68617697  0.64953229  0.68739184     1.49400
Zn380      Zn  0.64170067  0.67284823  0.70741743     1.49100
Zn381      Zn  0.63955221  0.64578974  0.66085281     1.49500
O382        O  0.65821688  0.66549492  0.67972536    -1.83100
O383        O  0.69898912  0.69636380  0.65774685    -0.73700
O384        O  0.69009738  0.64651355  0.72127066    -0.73500
O385        O  0.63915450  0.70659776  0.71161753    -0.73000
O386        O  0.71299611  0.66558375  0.67416624    -0.73700
O387        O  0.65437528  0.72080752  0.68026740    -0.73300
O388        O  0.65748702  0.65983168  0.73441875    -0.73900
O389        O  0.60916865  0.64043534  0.67502233    -0.73300
O390        O  0.68619742  0.61772678  0.67455177    -0.74000
O391        O  0.60994965  0.65981766  0.70700930    -0.73400
O392        O  0.65393253  0.61529620  0.65576761    -0.73900
O393        O  0.63365350  0.66004242  0.63067693    -0.73800
O394        O  0.64941453  0.69406861  0.63286472    -0.73600
C395        C  0.71567425  0.68368772  0.66280296     0.78200
C396        C  0.67653365  0.65033953  0.73757125     0.78700
C397        C  0.64438946  0.72338824  0.69916253     0.77700
C398        C  0.59955090  0.64709137  0.69308932     0.78000
C399        C  0.67241629  0.60648868  0.66236507     0.79200
C400        C  0.63789150  0.67934952  0.62216672     0.78200
C401        C  0.71476337  0.50851981  0.63017592    -0.13300
C402        C  0.69422938  0.51297974  0.64121972     0.17100
C403        C  0.67917580  0.49497519  0.64546413     0.03400
C404        C  0.68488158  0.47294804  0.63883402    -0.11800
C405        C  0.70546301  0.46844889  0.62787292    -0.02900
C406        C  0.72048769  0.48649716  0.62354525     0.02600
C407        C  0.68838041  0.53666502  0.64722557     0.09500
N408        N  0.65818529  0.49878373  0.65681303     0.65800
H409        H  0.67312388  0.45930351  0.64214274     0.18700
N410        N  0.74187948  0.48261993  0.61298222     0.76300
H411        H  0.72637711  0.52222359  0.62663950     0.10300
C412        C  0.70196929  0.54941839  0.66204117     0.04000
C413        C  0.69672967  0.57211311  0.66637863    -0.04800
C414        C  0.67790880  0.58261149  0.65625252    -0.23200
C415        C  0.66444224  0.56974640  0.64115239     0.13200
C416        C  0.66971363  0.54701805  0.63692162    -0.12300
N417        N  0.72076497  0.53931760  0.67338241     0.64900
H418        H  0.70725173  0.58136812  0.67810190     0.12700
N419        N  0.64573467  0.57955903  0.62941839     0.61500
H420        H  0.65948483  0.53755183  0.62510081     0.08900
O421        O  0.75802950  0.47468886  0.62444160    -0.40000
O422        O  0.74557316  0.49014316  0.59334437    -0.39100
O423        O  0.63981395  0.49674187  0.64615960    -0.39100
O424        O  0.65788484  0.50131128  0.67800082    -0.36800
O425        O  0.64913911  0.59060766  0.61146464    -0.37700
O426        O  0.62580591  0.57428072  0.63494445    -0.33900
O427        O  0.74059375  0.54592586  0.66906060    -0.35300
O428        O  0.71736701  0.52611676  0.68981479    -0.39600
C429        C  0.75084954  0.42296957  0.48585359    -0.13300
C430        C  0.73396343  0.40866118  0.49446119     0.17100
C431        C  0.72024302  0.39655917  0.47912876     0.03400
C432        C  0.72329508  0.39929135  0.45573220    -0.11800
C433        C  0.74019799  0.41362902  0.44708479    -0.02900
C434        C  0.75438229  0.42521415  0.46250011     0.02600
C435        C  0.72982498  0.40819901  0.51935275     0.09500
N436        N  0.70330454  0.38121067  0.48704619     0.65800
H437        H  0.71225616  0.39030653  0.44429828     0.18700
N438        N  0.77285241  0.43886048  0.45480888     0.76300
H439        H  0.76134163  0.43252659  0.49732802     0.10300
C440        C  0.74752763  0.40431607  0.53497233     0.04000
C441        C  0.74363336  0.40696404  0.55824755    -0.04800
C442        C  0.72223264  0.41308700  0.56633310    -0.23200
C443        C  0.70434128  0.41611725  0.55090980     0.13200
C444        C  0.70831560  0.41401240  0.52762437    -0.12300
N445        N  0.76953404  0.39769047  0.52744113     0.64900
H446        H  0.75741566  0.40451228  0.57003744     0.12700
N447        N  0.68205468  0.42133125  0.55876219     0.61500
H448        H  0.69463163  0.41731356  0.51595022     0.08900
O449        O  0.78911743  0.42981766  0.44437972    -0.40000
O450        O  0.77439765  0.45920335  0.46103700    -0.39100
O451        O  0.68278671  0.38465373  0.48231824    -0.39100
O452        O  0.70911997  0.36258677  0.49567058    -0.36800
O453        O  0.67163743  0.40757819  0.57135377    -0.37700
O454        O  0.67253291  0.43942855  0.55271571    -0.33900
O455        O  0.78653004  0.40966579  0.53226044    -0.35300
O456        O  0.77233993  0.37856255  0.51844977    -0.39600
C457        C  0.49036549  0.62300139  0.69282945    -0.13300
C458        C  0.50705643  0.61738222  0.70879784     0.17100
C459        C  0.50059273  0.60610955  0.72882952     0.03400
C460        C  0.47783209  0.60078604  0.73259300    -0.11800
C461        C  0.46120293  0.60615830  0.71655115    -0.02900
C462        C  0.46761435  0.61729165  0.69644673     0.02600
C463        C  0.53090863  0.62440100  0.70488866     0.09500
N464        N  0.51705882  0.59932704  0.74518604     0.65800
H465        H  0.47313398  0.59206170  0.74801961     0.18700
N466        N  0.45140593  0.62197161  0.67914716     0.76300
H467        H  0.49502472  0.63181487  0.67745534     0.10300
C468        C  0.54261503  0.61841089  0.68501506     0.04000
C469        C  0.56472586  0.62616488  0.68151212    -0.04800
C470        C  0.57584066  0.63971395  0.69764544    -0.23200
C471        C  0.56401181  0.64564591  0.71760266     0.13200
C472        C  0.54178240  0.63808741  0.72093635    -0.12300
N473        N  0.53254976  0.60386542  0.66853067     0.64900
H474        H  0.57330305  0.62119024  0.66614322     0.12700
N475        N  0.57416643  0.65937679  0.73468035     0.61500
H476        H  0.53286537  0.64315882  0.73608271     0.08900
O477        O  0.44638767  0.60680331  0.66501779    -0.40000
O478        O  0.44504760  0.64203475  0.67572715    -0.39100
O479        O  0.51602611  0.60687890  0.76511556    -0.39100
O480        O  0.53074659  0.58364413  0.74056565    -0.36800
O481        O  0.57108038  0.68047563  0.73447937    -0.37700
O482        O  0.58300622  0.65017362  0.75178525    -0.33900
O483        O  0.52947486  0.61089659  0.64860847    -0.35300
O484        O  0.52994932  0.58314667  0.67290587    -0.39600
C485        C  0.39222900  0.45855531  0.73911105    -0.13300
C486        C  0.40559877  0.47435966  0.75060564     0.17100
C487        C  0.42068706  0.46702861  0.76744333     0.03400
C488        C  0.42275190  0.44398300  0.77209857    -0.11800
C489        C  0.41010552  0.42792009  0.75999172    -0.02900
C490        C  0.39435352  0.43541053  0.74364644     0.02600
C491        C  0.40453809  0.49839866  0.74417999     0.09500
N492        N  0.43472308  0.48276111  0.77925093     0.65800
H493        H  0.43458215  0.43859919  0.78494648     0.18700
N494        N  0.38120405  0.41976264  0.73075411     0.76300
H495        H  0.38061700  0.46417150  0.72616916     0.10300
C496        C  0.41417938  0.50589417  0.72376479     0.04000
C497        C  0.41499708  0.52900255  0.71897117    -0.04800
C498        C  0.40645396  0.54490764  0.73439231    -0.23200
C499        C  0.39571839  0.53725173  0.75432416     0.13200
C500        C  0.39488600  0.51406862  0.75907785    -0.12300
N501        N  0.42435965  0.49029316  0.70838234     0.64900
H502        H  0.42305972  0.53460443  0.70353126     0.12700
N503        N  0.38681873  0.55279480  0.77052364     0.61500
H504        H  0.38737865  0.50832651  0.77473767     0.08900
O505        O  0.39036386  0.40871251  0.71497960    -0.40000
O506        O  0.35997275  0.41944811  0.73290027    -0.39100
O507        O  0.43075996  0.48722946  0.79973543    -0.39100
O508        O  0.45263802  0.48994070  0.77012599    -0.36800
O509        O  0.39985447  0.56183477  0.78478382    -0.37700
O510        O  0.36569455  0.55463271  0.77290427    -0.33900
O511        O  0.41498560  0.48613362  0.68967549    -0.35300
O512        O  0.44384949  0.48260683  0.71239039    -0.39600
C513        C  0.99074890  0.84991476  0.31080308    -0.13300
C514        C  0.00689671  0.85430771  0.29395394     0.17100
C515        C  0.00030494  0.86608997  0.27418426     0.03400
C516        C  0.97789142  0.87359195  0.27200602    -0.11800
C517        C  0.96172277  0.86868595  0.28867681    -0.02900
C518        C  0.96831314  0.85685942  0.30825862     0.02600
C519        C  0.03042249  0.84638114  0.29768671     0.09500
N520        N  0.01569712  0.86942798  0.25571346     0.65800
H521        H  0.97275606  0.88219605  0.25670310     0.18700
N522        N  0.95245669  0.85211643  0.32588240     0.76300
H523        H  0.99562983  0.84111110  0.32608637     0.10300
C524        C  0.04908990  0.86127077  0.29723494     0.04000
C525        C  0.07085793  0.85284800  0.30131575    -0.04800
C526        C  0.07448275  0.82994419  0.30670245    -0.23200
C527        C  0.05572202  0.81512561  0.30697766     0.13200
C528        C  0.03403986  0.82341944  0.30241322    -0.12300
N529        N  0.04618698  0.88510327  0.29385478     0.64900
H530        H  0.08487742  0.86457665  0.30122639     0.12700
N531        N  0.05829178  0.79157585  0.31167583     0.61500
H532        H  0.01988130  0.81183840  0.30263045     0.08900
O533        O  0.94585399  0.83208489  0.32909956    -0.40000
O534        O  0.94808194  0.86708061  0.34042820    -0.39100
O535        O  0.02665370  0.85290539  0.24784522    -0.39100
O536        O  0.01614305  0.88809912  0.24536825    -0.36800
O537        O  0.05344579  0.78405810  0.33106380    -0.37700
O538        O  0.06168488  0.77794268  0.29563117    -0.33900
O539        O  0.03255997  0.89601545  0.30612032    -0.35300
O540        O  0.05931435  0.89573262  0.28077476    -0.39600
C541        C  0.90659930  0.96651782  0.28095955    -0.13300
C542        C  0.89643621  0.97235657  0.26032581     0.17100
C543        C  0.88838194  0.95498923  0.24607339     0.03400
C544        C  0.89152676  0.93227734  0.25212190    -0.11800
C545        C  0.90237829  0.92643386  0.27240815    -0.02900
C546        C  0.90933297  0.94383126  0.28724507     0.02600
C547        C  0.89719348  0.99631771  0.25268287     0.09500
N548        N  0.87731118  0.96019884  0.22521383     0.65800
H549        H  0.88611851  0.91917334  0.24057400     0.18700
N550        N  0.91929521  0.93870124  0.30870528     0.76300
H551        H  0.91300669  0.97961991  0.29198116     0.10300
C552        C  0.88833678  0.01411547  0.26588525     0.04000
C553        C  0.89164159  0.03663390  0.25912574    -0.04800
C554        C  0.90378428  0.04183967  0.23938009    -0.23200
C555        C  0.91236638  0.02400108  0.22605177     0.13200
C556        C  0.90910326  0.00156430  0.23282894    -0.12300
N557        N  0.87611677  0.00957159  0.28625736     0.64900
H558        H  0.88513533  0.05016302  0.26965597     0.12700
N559        N  0.92441186  0.02841582  0.20554058     0.61500
H560        H  0.91639331  0.98811622  0.22272598     0.08900
O561        O  0.93861917  0.94632025  0.31361221    -0.40000
O562        O  0.90774794  0.92879876  0.32369337    -0.39100
O563        O  0.88561153  0.95347713  0.20673924    -0.39100
O564        O  0.85792032  0.96907650  0.22544609    -0.36800
O565        O  0.94516948  0.02366681  0.20418527    -0.37700
O566        O  0.91363848  0.03360229  0.18786962    -0.33900
O567        O  0.88390593  0.01610423  0.30501944    -0.35300
O568        O  0.85626720  0.00181169  0.28521591    -0.39600
C569        C  0.04372181  0.12744879  0.22787005    -0.13300
C570        C  0.02922067  0.12392641  0.20942721     0.17100
C571        C  0.03723978  0.12820903  0.18732175     0.03400
C572        C  0.05971180  0.13511276  0.18417129    -0.11800
C573        C  0.07422390  0.13889304  0.20263401    -0.02900
C574        C  0.06592631  0.13511362  0.22474114     0.02600
C575        C  0.00582683  0.11583693  0.21381602     0.09500
N576        N  0.02263774  0.12646414  0.16801621     0.65800
H577        H  0.06563391  0.13830734  0.16713606     0.18700
N578        N  0.07995823  0.13807867  0.24418829     0.76300
H579        H  0.03774921  0.12416986  0.24488293     0.10300
C580        C  0.99715630  0.09588448  0.20389517     0.04000
C581        C  0.97465790  0.08954296  0.20805412    -0.04800
C582        C  0.96085187  0.10216974  0.22266837    -0.23200
C583        C  0.96984345  0.12165243  0.23315092     0.13200
C584        C  0.99199241  0.12848711  0.22833680    -0.12300
N585        N  0.01108627  0.08155639  0.19015929     0.64900
H586        H  0.96800163  0.07455351  0.20004829     0.12700
N587        N  0.95706871  0.13411708  0.24948545     0.61500
H588        H  0.99856291  0.14356846  0.23625784     0.08900
O589        O  0.08230523  0.15757423  0.25250999    -0.40000
O590        O  0.08525934  0.12105249  0.25589874    -0.39100
O591        O  0.00354098  0.13597934  0.16814718    -0.39100
O592        O  0.02983130  0.11777163  0.14989659    -0.36800
O593        O  0.95192354  0.12502895  0.26811315    -0.37700
O594        O  0.95363980  0.15497870  0.24665109    -0.33900
O595        O  0.03019651  0.07524865  0.19725723    -0.35300
O596        O  0.00327024  0.07304571  0.17221325    -0.39600
C597        C  0.20991960  0.96258562  0.36859142    -0.13300
C598        C  0.19051380  0.95254699  0.37778768     0.17100
C599        C  0.17777350  0.96425279  0.39409541     0.03400
C600        C  0.18433224  0.98602242  0.40067571    -0.11800
C601        C  0.20345980  0.99634179  0.39107548    -0.02900
C602        C  0.21667872  0.98426957  0.37529119     0.02600
C603        C  0.18417488  0.92957137  0.37044813     0.09500
N604        N  0.15755472  0.95464736  0.40323795     0.65800
H605        H  0.17397207  0.99524418  0.41257457     0.18700
N606        N  0.23728560  0.99356152  0.36648305     0.76300
H607        H  0.22002612  0.95334283  0.35649751     0.10300
C608        C  0.17579811  0.92571789  0.34857035     0.04000
C609        C  0.17107280  0.90369085  0.34148290    -0.04800
C610        C  0.17479591  0.88508145  0.35586177    -0.23200
C611        C  0.18337761  0.88908206  0.37788660     0.13200
C612        C  0.18781391  0.91124360  0.38499849    -0.12300
N613        N  0.17197151  0.94410390  0.33336889     0.64900
H614        H  0.16465201  0.90122103  0.32456520     0.12700
N615        N  0.18795298  0.87094910  0.39319471     0.61500
H616        H  0.19452949  0.91412780  0.40173782     0.08900
O617        O  0.25211095  0.00115114  0.37983380    -0.40000
O618        O  0.24182480  0.99183446  0.34569382    -0.39100
O619        O  0.15696005  0.94842591  0.42364730    -0.39100
O620        O  0.13965942  0.95452619  0.39161909    -0.36800
O621        O  0.20782637  0.86339481  0.39488612    -0.37700
O622        O  0.17330753  0.86536239  0.40768785    -0.33900
O623        O  0.18565816  0.94775295  0.31739840    -0.35300
O624        O  0.15364616  0.95496723  0.33428363    -0.39600
C625        C  0.21541440  0.08640954  0.32458216    -0.13300
C626        C  0.19938135  0.10383624  0.32618889     0.17100
C627        C  0.18823120  0.10731705  0.34704179     0.03400
C628        C  0.19305609  0.09330629  0.36557445    -0.11800
C629        C  0.20899924  0.07582456  0.36388520    -0.02900
C630        C  0.22060258  0.07268440  0.34320705     0.02600
C631        C  0.19320580  0.11668130  0.30536600     0.09500
N632        N  0.17176440  0.12481894  0.34958781     0.65800
H633        H  0.18380797  0.09571125  0.38122350     0.18700
N634        N  0.23767842  0.05564594  0.34087339     0.76300
H635        H  0.22381548  0.08323142  0.30860319     0.10300
C636        C  0.20989866  0.12605365  0.29100029     0.04000
C637        C  0.20373693  0.13501383  0.26990621    -0.04800
C638        C  0.18105363  0.13551101  0.26303896    -0.23200
C639        C  0.16430899  0.12649635  0.27750987     0.13200
C640        C  0.17051251  0.11721512  0.29841140    -0.12300
N641        N  0.23310531  0.12694003  0.29780455     0.64900
H642        H  0.21672377  0.14210211  0.25901683     0.12700
N643        N  0.14114742  0.12523877  0.27056125     0.61500
H644        H  0.15758402  0.10927271  0.30875299     0.08900
O645        O  0.23784442  0.04291105  0.32375240    -0.40000
O646        O  0.25374636  0.05460983  0.35488269    -0.39100
O647        O  0.15159496  0.11984817  0.35451889    -0.39100
O648        O  0.17787810  0.14525294  0.34944190    -0.36800
O649        O  0.13583077  0.11451352  0.25288785    -0.37700
O650        O  0.12582138  0.13334236  0.28299139    -0.33900
O651        O  0.24827395  0.11877203  0.28521528    -0.35300
O652        O  0.23865801  0.13773965  0.31534633    -0.39600
C653        C  0.24209644  0.07191427  0.47705036    -0.13300
C654        C  0.22677194  0.06397523  0.49341632     0.17100
C655        C  0.20611603  0.05441919  0.48624608     0.03400
C656        C  0.20193560  0.05137475  0.46313913    -0.11800
C657        C  0.21801208  0.05775513  0.44685789    -0.02900
C658        C  0.23793097  0.06877857  0.45391184     0.02600
C659        C  0.23337982  0.06388167  0.51769537     0.09500
N660        N  0.18984452  0.04637807  0.50222994     0.65800
H661        H  0.18646572  0.04311397  0.45791360     0.18700
N662        N  0.25487570  0.07524079  0.43792636     0.76300
H663        H  0.25783595  0.07960799  0.48229415     0.10300
C664        C  0.25309526  0.05252147  0.52486795     0.04000
C665        C  0.25802259  0.05081338  0.54792631    -0.04800
C666        C  0.24346867  0.05997018  0.56426533    -0.23200
C667        C  0.22426755  0.07217140  0.55716027     0.13200
C668        C  0.21945683  0.07418968  0.53397881    -0.12300
N669        N  0.26760864  0.04143876  0.50902872     0.64900
H670        H  0.27286408  0.04153888  0.55314727     0.12700
N671        N  0.20873853  0.08129593  0.57326071     0.61500
H672        H  0.20446172  0.08316260  0.52873017     0.08900
O673        O  0.26881922  0.06075627  0.43082569    -0.40000
O674        O  0.25783249  0.09585826  0.43332113    -0.39100
O675        O  0.17163317  0.05710385  0.50508677    -0.39100
O676        O  0.19211217  0.02700490  0.51086798    -0.36800
O677        O  0.20749858  0.10240157  0.57601578    -0.37700
O678        O  0.19440525  0.06854379  0.58262887    -0.33900
O679        O  0.28748612  0.04861066  0.50602424    -0.35300
O680        O  0.26178370  0.02270676  0.50066078    -0.39600
C681        C  0.35833154  0.31924159  0.76466837    -0.13300
C682        C  0.35276360  0.31341946  0.78703684     0.17100
C683        C  0.36105079  0.32688138  0.80503211     0.03400
C684        C  0.37502822  0.34542785  0.80020356    -0.11800
C685        C  0.38150874  0.35026083  0.77794294    -0.02900
C686        C  0.37274910  0.33737106  0.76004132     0.02600
C687        C  0.34091295  0.29168187  0.79114432     0.09500
N688        N  0.35727437  0.32080654  0.82822432     0.65800
H689        H  0.38231154  0.35507304  0.81402659     0.18700
N690        N  0.37984394  0.34144468  0.73727970     0.76300
H691        H  0.35222844  0.30896139  0.75072831     0.10300
C692        C  0.32146387  0.28983775  0.80491902     0.04000
C693        C  0.31315125  0.26831103  0.81059424    -0.04800
C694        C  0.32326817  0.24859373  0.80199000    -0.23200
C695        C  0.34199385  0.25072419  0.78724299     0.13200
C696        C  0.35064645  0.27205695  0.78216730    -0.12300
N697        N  0.30980620  0.30953767  0.81290486     0.64900
H698        H  0.29850240  0.26702021  0.82143405     0.12700
N699        N  0.35321495  0.23140960  0.77804768     0.61500
H700        H  0.36560199  0.27322737  0.77171461     0.08900
O701        O  0.39367997  0.32818574  0.72792424    -0.40000
O702        O  0.37374403  0.35920732  0.72716685    -0.39100
O703        O  0.36257221  0.30134278  0.83518674    -0.39100
O704        O  0.35182347  0.33579259  0.84239581    -0.36800
O705        O  0.34968064  0.22582156  0.75775984    -0.37700
O706        O  0.36924937  0.22237092  0.78883185    -0.33900
O707        O  0.30514320  0.32538974  0.79938881    -0.35300
O708        O  0.30198688  0.31007207  0.83277227    -0.39600
C709        C  0.27433146  0.11749639  0.66245686    -0.13300
C710        C  0.26319567  0.11275349  0.68295505     0.17100
C711        C  0.24809270  0.09432996  0.68398090     0.03400
C712        C  0.24496463  0.08064174  0.66502275    -0.11800
C713        C  0.25714296  0.08444250  0.64499228    -0.02900
C714        C  0.27157981  0.10338123  0.64357077     0.02600
C715        C  0.26799443  0.12642593  0.70346786     0.09500
N716        N  0.23701675  0.08830116  0.70463935     0.65800
H717        H  0.23378650  0.06621968  0.66632486     0.18700
N718        N  0.28470034  0.10761235  0.62370986     0.76300
H719        H  0.28573108  0.13173711  0.66134645     0.10300
C720        C  0.29023417  0.12895321  0.71168655     0.04000
C721        C  0.29396465  0.13988972  0.73230398    -0.04800
C722        C  0.27583813  0.14796512  0.74536682    -0.23200
C723        C  0.25371740  0.14653829  0.73659413     0.13200
C724        C  0.24999996  0.13593952  0.71572917    -0.12300
N725        N  0.30903597  0.11894576  0.70024753     0.64900
H726        H  0.31106601  0.14068749  0.73880987     0.12700
N727        N  0.23494809  0.15602907  0.74848604     0.61500
H728        H  0.23292254  0.13476779  0.70924528     0.08900
O729        O  0.27878842  0.12305031  0.61021997    -0.40000
O730        O  0.30406608  0.09887937  0.62181783    -0.39100
O731        O  0.21571976  0.08879882  0.70583834    -0.39100
O732        O  0.24827671  0.07980329  0.72065333    -0.36800
O733        O  0.23199423  0.17714887  0.74835233    -0.37700
O734        O  0.21964630  0.14328281  0.75617440    -0.33900
O735        O  0.32442701  0.13137647  0.69222220    -0.35300
O736        O  0.31203959  0.09785920  0.70133916    -0.39600
C737        C  0.21025538  0.87155513  0.17563351    -0.13300
C738        C  0.18953871  0.86002247  0.17704018     0.17100
C739        C  0.17375440  0.86233449  0.15929546     0.03400
C740        C  0.17858252  0.87649715  0.14085714    -0.11800
C741        C  0.19886797  0.88876058  0.13997442    -0.02900
C742        C  0.21490124  0.88601044  0.15739478     0.02600
C743        C  0.18342135  0.84870670  0.19865502     0.09500
N744        N  0.15240322  0.85104035  0.16019420     0.65800
H745        H  0.16607564  0.87874008  0.12778858     0.18700
N746        N  0.23557234  0.89853630  0.15724917     0.76300
H747        H  0.22225993  0.87032682  0.18928380     0.10300
C748        C  0.19588619  0.83036802  0.20733227     0.04000
C749        C  0.19124590  0.82198325  0.22912030    -0.04800
C750        C  0.17434553  0.83180292  0.24269545    -0.23200
C751        C  0.16164236  0.85006345  0.23364804     0.13200
C752        C  0.16625475  0.85820901  0.21189111    -0.12300
N753        N  0.21330541  0.82007450  0.19415860     0.64900
H754        H  0.20109758  0.80806604  0.23549100     0.12700
N755        N  0.14411258  0.86085709  0.24633099     0.61500
H756        H  0.15687060  0.87248963  0.20560734     0.08900
O757        O  0.23697501  0.91675412  0.16824343    -0.40000
O758        O  0.25328745  0.88957351  0.14946820    -0.39100
O759        O  0.13447700  0.86236322  0.16249931    -0.39100
O760        O  0.15120917  0.83028571  0.15546604    -0.36800
O761        O  0.14842892  0.87870215  0.25718982    -0.37700
O762        O  0.12381476  0.85491654  0.24349934    -0.33900
O763        O  0.23373463  0.82233888  0.19986826    -0.35300
O764        O  0.20814488  0.80668814  0.17837818    -0.39600
C765        C  0.20719628  0.00998663  0.12320615    -0.13300
C766        C  0.18734326  0.01482885  0.13530287     0.17100
C767        C  0.17181565  0.99736837  0.13985439     0.03400
C768        C  0.17642503  0.97534834  0.13263964    -0.11800
C769        C  0.19637924  0.97038260  0.12078645    -0.02900
C770        C  0.21178429  0.98792689  0.11589236     0.02600
C771        C  0.18272047  0.03834982  0.14240535     0.09500
N772        N  0.15147687  0.00168629  0.15217132     0.65800
H773        H  0.16442591  0.96212273  0.13627301     0.18700
N774        N  0.23239815  0.98351315  0.10406921     0.76300
H775        H  0.21904864  0.02329567  0.11945458     0.10300
C776        C  0.19713343  0.04970905  0.15752017     0.04000
C777        C  0.19274798  0.07221633  0.16332907    -0.04800
C778        C  0.17389537  0.08374283  0.15447167    -0.23200
C779        C  0.15962870  0.07228449  0.13899296     0.13200
C780        C  0.16410389  0.04976297  0.13322762    -0.12300
N781        N  0.21578835  0.03829743  0.16782641     0.64900
H782        H  0.20377173  0.08038166  0.17528473     0.12700
N783        N  0.14082934  0.08329157  0.12850706     0.61500
H784        H  0.15329279  0.04130939  0.12128255     0.08900
O785        O  0.23466952  0.99010235  0.08388819    -0.40000
O786        O  0.24944063  0.97655168  0.11484268    -0.39100
O787        O  0.13259676  0.00028772  0.14233617    -0.39100
O788        O  0.15219940  0.00401295  0.17337165    -0.36800
O789        O  0.14415918  0.09662296  0.11216155    -0.37700
O790        O  0.12094822  0.07706185  0.13314908    -0.33900
O791        O  0.23569590  0.04521212  0.16445825    -0.35300
O792        O  0.21220259  0.02303006  0.18231530    -0.39600
C793        C  0.28127470  0.05038208  0.86640429    -0.13300
C794        C  0.26041856  0.04203354  0.85880657     0.17100
C795        C  0.24571369  0.05660832  0.84704504     0.03400
C796        C  0.25229018  0.07896295  0.84255294    -0.11800
C797        C  0.27347863  0.08728355  0.84964018    -0.02900
C798        C  0.28786833  0.07270123  0.86205126     0.02600
C799        C  0.25424931  0.01824247  0.86409331     0.09500
N800        N  0.22432188  0.04878671  0.83893788     0.65800
H801        H  0.24089319  0.08963598  0.83320058     0.18700
N802        N  0.30918530  0.08018851  0.87062789     0.76300
H803        H  0.29238304  0.03960652  0.87598031     0.10300
C804        C  0.26852280  0.00024740  0.85775872     0.04000
C805        C  0.26369282  0.97821928  0.86496734    -0.04800
C806        C  0.24448486  0.97355569  0.87815821    -0.23200
C807        C  0.22986176  0.99147987  0.88404376     0.13200
C808        C  0.23495317  0.01364968  0.87719668    -0.12300
N809        N  0.28796992  0.00408408  0.84386524     0.64900
H810        H  0.27505282  0.96477841  0.86038332     0.12700
N811        N  0.20951693  0.98739525  0.89647870     0.61500
H812        H  0.22400986  0.02723733  0.88226734     0.08900
O813        O  0.32722028  0.07400477  0.86105814    -0.40000
O814        O  0.31011356  0.08974727  0.88967907    -0.39100
O815        O  0.20630266  0.05719197  0.84666424    -0.39100
O816        O  0.22349305  0.03582376  0.82202165    -0.36800
O817        O  0.19285239  0.97827768  0.88676288    -0.37700
O818        O  0.20701212  0.99590547  0.91588251    -0.33900
O819        O  0.30739482  0.99893053  0.85102267    -0.35300
O820        O  0.28553896  0.01060600  0.82368223    -0.39600
C821        C  0.24172828  0.92396176  0.98139921    -0.13300
C822        C  0.22265713  0.91136951  0.98787865     0.17100
C823        C  0.20856832  0.90213359  0.97101577     0.03400
C824        C  0.21364784  0.90562739  0.94810416    -0.11800
C825        C  0.23259493  0.91841059  0.94162102    -0.02900
C826        C  0.24681355  0.92747561  0.95850305     0.02600
C827        C  0.21664892  0.91012998  0.01224280     0.09500
N828        N  0.18896626  0.88926496  0.97690092     0.65800
H829        H  0.20257175  0.89874684  0.93540287     0.18700
N830        N  0.26661267  0.94009276  0.95268372     0.76300
H831        H  0.25241965  0.93140203  0.99410119     0.10300
C832        C  0.23167110  0.90104787  0.02839287     0.04000
C833        C  0.22686126  0.90304985  0.05155464    -0.04800
C834        C  0.20721856  0.91410730  0.05894138    -0.23200
C835        C  0.19181978  0.92249858  0.04274305     0.13200
C836        C  0.19665052  0.92051773  0.01962790    -0.12300
N837        N  0.25208974  0.89012476  0.02150902     0.64900
H838        H  0.23880967  0.89669030  0.06374333     0.12700
N839        N  0.17130783  0.93332989  0.04952544     0.61500
H840        H  0.18515660  0.92773330  0.00749448     0.08900
O841        O  0.28413817  0.92983919  0.94616276    -0.40000
O842        O  0.26774154  0.96085575  0.95741929    -0.39100
O843        O  0.16954351  0.89692439  0.97253224    -0.39100
O844        O  0.19111625  0.86899711  0.98318622    -0.36800
O845        O  0.15452651  0.92147014  0.05529728    -0.37700
O846        O  0.16873893  0.95422335  0.04608527    -0.33900
O847        O  0.27097198  0.89887262  0.02622860    -0.35300
O848        O  0.25131954  0.87045590  0.01331643    -0.39600
C849        C  0.26394908  0.21841937  0.14705224    -0.13300
C850        C  0.27942493  0.20151312  0.14089911     0.17100
C851        C  0.27438320  0.17879863  0.14631644     0.03400
C852        C  0.25380401  0.17338881  0.15681618    -0.11800
C853        C  0.23759642  0.19015218  0.16139760    -0.02900
C854        C  0.24306246  0.21294713  0.15677494     0.02600
C855        C  0.30007023  0.20781658  0.12784415     0.09500
N856        N  0.28918473  0.16082893  0.13982728     0.65800
H857        H  0.24994940  0.15584022  0.16003408     0.18700
N858        N  0.22751975  0.23079301  0.16157132     0.76300
H859        H  0.26781977  0.23593798  0.14373506     0.10300
C860        C  0.29848761  0.22135598  0.10822790     0.04000
C861        C  0.31783364  0.22602507  0.09551527    -0.04800
C862        C  0.33884172  0.21642106  0.10104093    -0.23200
C863        C  0.34074987  0.20388282  0.12129116     0.13200
C864        C  0.32148570  0.20003605  0.13468500    -0.12300
N865        N  0.27710335  0.22901398  0.09990125     0.64900
H866        H  0.31608754  0.23602049  0.08028129     0.12700
N867        N  0.36165643  0.19364129  0.12772302     0.61500
H868        H  0.32312255  0.19018379  0.14999621     0.08900
O869        O  0.21632259  0.23962012  0.14569162    -0.40000
O870        O  0.22761396  0.23999713  0.18081197    -0.39100
O871        O  0.29832875  0.14868864  0.15480642    -0.39100
O872        O  0.29046406  0.15503929  0.11932676    -0.36800
O873        O  0.37238863  0.20113955  0.14456849    -0.37700
O874        O  0.36758158  0.17519715  0.11882174    -0.33900
O875        O  0.27344990  0.24990753  0.09765985    -0.35300
O876        O  0.26328470  0.21498221  0.09168815    -0.39600
C877        C  0.36425330  0.19054211  0.98448002    -0.13300
C878        C  0.34594323  0.20284813  0.97581992     0.17100
C879        C  0.33529276  0.21928309  0.98940236     0.03400
C880        C  0.34310348  0.22305682  0.01140559    -0.11800
C881        C  0.36098683  0.21027230  0.02032919    -0.02900
C882        C  0.37171400  0.19396966  0.00666244     0.02600
C883        C  0.33786389  0.19779014  0.95275595     0.09500
N884        N  0.31591395  0.23146900  0.98151101     0.65800
H885        H  0.33480553  0.23555959  0.02178563     0.18700
N886        N  0.38931246  0.17991742  0.01545395     0.76300
H887        H  0.37235243  0.17784868  0.97417318     0.10300
C888        C  0.33806876  0.21426744  0.93549962     0.04000
C889        C  0.32910419  0.20895365  0.91423729    -0.04800
C890        C  0.32091541  0.18716992  0.90956799    -0.23200
C891        C  0.32098871  0.17069322  0.92682557     0.13200
C892        C  0.32933496  0.17615789  0.94823870    -0.12300
N893        N  0.34841023  0.23592814  0.93893628     0.64900
H894        H  0.32964216  0.22154962  0.90094702     0.12700
N895        N  0.31202746  0.14857102  0.92307658     0.61500
H896        H  0.32895385  0.16352031  0.96150681     0.08900
O897        O  0.40866162  0.18020983  0.00645280    -0.40000
O898        O  0.38473699  0.16516079  0.03019168    -0.39100
O899        O  0.29813950  0.22089766  0.97623241    -0.39100
O900        O  0.31543406  0.25274988  0.98288574    -0.36800
O901        O  0.32527223  0.13197306  0.92117881    -0.37700
O902        O  0.29105207  0.14515996  0.92503109    -0.33900
O903        O  0.36833313  0.23714011  0.94650249    -0.35300
O904        O  0.33893252  0.25358966  0.93162641    -0.39600
C905        C  0.50741165  0.22607793  0.08897939    -0.13300
C906        C  0.49211210  0.24027640  0.07766041     0.17100
C907        C  0.50051163  0.25855657  0.06486263     0.03400
C908        C  0.52385337  0.26188499  0.06295233    -0.11800
C909        C  0.53924361  0.24700351  0.07326859    -0.02900
C910        C  0.53082273  0.22911815  0.08669210     0.02600
C911        C  0.46754045  0.23516999  0.07847819     0.09500
N912        N  0.48560596  0.27322165  0.05273953     0.65800
H913        H  0.52997198  0.27586468  0.05292921     0.18700
N914        N  0.54570419  0.21312278  0.09702604     0.76300
H915        H  0.50116633  0.21214942  0.09897544     0.10300
C916        C  0.45923122  0.21406401  0.07114366     0.04000
C917        C  0.43594942  0.21007813  0.07069438    -0.04800
C918        C  0.42057119  0.22693785  0.07708510    -0.23200
C919        C  0.42878922  0.24774167  0.08521983     0.13200
C920        C  0.45218540  0.25167126  0.08601257    -0.12300
N921        N  0.47411977  0.19706780  0.06257929     0.64900
H922        H  0.42978332  0.19415564  0.06421449     0.12700
N923        N  0.41361768  0.26552731  0.09122696     0.61500
H924        H  0.45833854  0.26780592  0.09188716     0.08900
O925        O  0.55562379  0.19860800  0.08495745    -0.40000
O926        O  0.54617772  0.21124419  0.11828560    -0.39100
O927        O  0.48390498  0.29368567  0.05848060    -0.39100
O928        O  0.47696267  0.26669398  0.03435792    -0.36800
O929        O  0.40908773  0.26907250  0.11177448    -0.37700
O930        O  0.40769099  0.27977707  0.07648963    -0.33900
O931        O  0.47585413  0.17840217  0.07277010    -0.35300
O932        O  0.48274243  0.19934885  0.04318058    -0.39600
C933        C  0.65489039  0.24857285  0.11934672    -0.13300
C934        C  0.65118111  0.26441509  0.13660952     0.17100
C935        C  0.63034365  0.27603773  0.13739334     0.03400
C936        C  0.61411965  0.27236273  0.12051223    -0.11800
C937        C  0.61825299  0.25717917  0.10278390    -0.02900
C938        C  0.63860574  0.24478202  0.10259758     0.02600
C939        C  0.67075072  0.27162034  0.15059078     0.09500
N940        N  0.62575587  0.29213140  0.15483596     0.65800
H941        H  0.59854649  0.28197340  0.12082617     0.18700
N942        N  0.64307370  0.22851517  0.08529929     0.76300
H943        H  0.67093151  0.23984592  0.11824548     0.10300
C944        C  0.68398146  0.25609386  0.16298906     0.04000
C945        C  0.70489436  0.26288509  0.17201573    -0.04800
C946        C  0.71298414  0.28495738  0.16863526    -0.23200
C947        C  0.69913010  0.30069517  0.15719620     0.13200
C948        C  0.67832999  0.29393318  0.14831088    -0.12300
N949        N  0.67673330  0.23322219  0.16587448     0.64900
H950        H  0.71527897  0.25059157  0.18069420     0.12700
N951        N  0.70629567  0.32349165  0.15371060     0.61500
H952        H  0.66860209  0.30593994  0.13853329     0.08900
O953        O  0.65858850  0.23208022  0.07107160    -0.40000
O954        O  0.63380678  0.20932091  0.08623214    -0.39100
O955        O  0.62162807  0.31243913  0.14976557    -0.39100
O956        O  0.62297748  0.28549307  0.17493479    -0.36800
O957        O  0.70411163  0.33772349  0.16944046    -0.37700
O958        O  0.71106553  0.33016377  0.13399636    -0.33900
O959        O  0.68807792  0.21732044  0.15732293    -0.35300
O960        O  0.66076661  0.22875696  0.17932067    -0.39600
C961        C  0.84694199  0.14005497  0.20722573    -0.13300
C962        C  0.85099582  0.16033018  0.21884903     0.17100
C963        C  0.86848286  0.16132610  0.23492279     0.03400
C964        C  0.88230996  0.14249173  0.23846927    -0.11800
C965        C  0.87919778  0.12253744  0.22595505    -0.02900
C966        C  0.86087641  0.12114216  0.21071558     0.02600
C967        C  0.83867197  0.18109853  0.21242184     0.09500
N968        N  0.87332626  0.18186531  0.24668614     0.65800
H969        H  0.89617655  0.14379719  0.25024318     0.18700
N970        N  0.85723253  0.10130228  0.19744745     0.76300
H971        H  0.83366130  0.13925912  0.19476655     0.10300
C972        C  0.84609734  0.19402292  0.19392427     0.04000
C973        C  0.83622338  0.21498709  0.18949829    -0.04800
C974        C  0.81874279  0.22358363  0.20322514    -0.23200
C975        C  0.81038503  0.20989813  0.22101375     0.13200
C976        C  0.82063105  0.18895057  0.22566795    -0.12300
N977        N  0.86442019  0.18648694  0.18007595     0.64900
H978        H  0.84275537  0.22479491  0.17550065     0.12700
N979        N  0.79196971  0.21717112  0.23483751     0.61500
H980        H  0.81475257  0.17897028  0.23982777     0.08900
O981        O  0.86758505  0.09890491  0.17893973    -0.40000
O982        O  0.84124706  0.08805513  0.20240365    -0.39100
O983        O  0.86873711  0.18351719  0.26745907    -0.39100
O984        O  0.88492676  0.19705933  0.23718009    -0.36800
O985        O  0.77194484  0.21295961  0.22878751    -0.37700
O986        O  0.79571581  0.22444470  0.25453788    -0.33900
O987        O  0.86038400  0.17744072  0.16118639    -0.35300
O988        O  0.88445060  0.19179826  0.18515590    -0.39600
C989        C  0.73527205  0.36554604  0.33116613    -0.13300
C990        C  0.75335928  0.35040249  0.33342743     0.17100
C991        C  0.76575329  0.35006095  0.35378544     0.03400
C992        C  0.76097912  0.36582492  0.37084833    -0.11800
C993        C  0.74386904  0.38201977  0.36794554    -0.02900
C994        C  0.73034695  0.38119282  0.34826571     0.02600
C995        C  0.76185388  0.33889055  0.31282648     0.09500
N996        N  0.78394136  0.33447547  0.35686587     0.65800
H997        H  0.77146517  0.36622307  0.38577453     0.18700
N998        N  0.71203635  0.39665901  0.34509431     0.76300
H999        H  0.72575437  0.36604958  0.31561219     0.10300
C1000       C  0.74883507  0.32298704  0.30079472     0.04000
C1001       C  0.75598057  0.31560222  0.27934376    -0.04800
C1002       C  0.77586946  0.32420683  0.26943517    -0.23200
C1003       C  0.78920453  0.33961210  0.28199525     0.13200
C1004       C  0.78216509  0.34667333  0.30343306    -0.12300
N1005       N  0.72814820  0.31451398  0.30998369     0.64900
H1006       H  0.74554750  0.30383574  0.27014241     0.12700
N1007       N  0.80974876  0.34874195  0.27308083     0.61500
H1008       H  0.79209899  0.35909711  0.31233221     0.08900
O1009       O  0.69459941  0.39504932  0.35730016    -0.40000
O1010       O  0.71199192  0.40985094  0.32830571    -0.39100
O1011       O  0.80406452  0.34155249  0.35746538    -0.39100
O1012       O  0.77971485  0.31418685  0.36193218    -0.36800
O1013       O  0.80981665  0.36835192  0.26466304    -0.37700
O1014       O  0.82827617  0.33905042  0.27726698    -0.33900
O1015       O  0.70950565  0.32093953  0.30185231    -0.35300
O1016       O  0.72858072  0.29823838  0.32378128    -0.39600
C1017       C  0.11274829  0.18579214  0.01988124    -0.13300
C1018       C  0.10689232  0.20175825  0.03637478     0.17100
C1019       C  0.09551008  0.22162820  0.02988398     0.03400
C1020       C  0.08964808  0.22493263  0.00717855    -0.11800
C1021       C  0.09501408  0.20867738  0.99073576    -0.02900
C1022       C  0.10679414  0.18899196  0.99722736     0.02600
C1023       C  0.11327945  0.19747733  0.06016668     0.09500
N1024       N  0.08925101  0.23821944  0.04627875     0.65800
H1025       H  0.08065381  0.24019578  0.00236748     0.18700
N1026       N  0.11187143  0.17164017  0.98120017     0.76300
H1027       H  0.12174395  0.17053792  0.02471774     0.10300
C1028       C  0.10543498  0.17816165  0.07165012     0.04000
C1029       C  0.11341986  0.17331186  0.09334399    -0.04800
C1030       C  0.12921822  0.18747928  0.10411144    -0.23200
C1031       C  0.13684601  0.20705287  0.09258339     0.13200
C1032       C  0.12878994  0.21185682  0.07082916    -0.12300
N1033       N  0.08914236  0.16343124  0.06154776     0.64900
H1034       H  0.10705855  0.15835549  0.10178333     0.12700
N1035       N  0.15334848  0.22180559  0.10226629     0.61500
H1036       H  0.13523641  0.22651259  0.06192231     0.08900
O1037       O  0.13217816  0.16730945  0.97629375    -0.40000
O1038       O  0.09634382  0.15876552  0.97424579    -0.39100
O1039       O  0.09976470  0.25676269  0.04717134    -0.39100
O1040       O  0.07162089  0.23546132  0.05799036    -0.36800
O1041       O  0.14728449  0.24047415  0.11058492    -0.37700
O1042       O  0.17410971  0.21775464  0.09947516    -0.33900
O1043       O  0.09467621  0.14353578  0.05624261    -0.35300
O1044       O  0.06858722  0.16911250  0.06109059    -0.39600
C1045       C  0.19296066  0.21187688  0.88155296    -0.13300
C1046       C  0.17355519  0.20582070  0.86940571     0.17100
C1047       C  0.17587529  0.19555267  0.84802251     0.03400
C1048       C  0.19751595  0.19035420  0.83974429    -0.11800
C1049       C  0.21701568  0.19583788  0.85219802    -0.02900
C1050       C  0.21455292  0.20694763  0.87323373     0.02600
C1051       C  0.15133714  0.20787284  0.88082509     0.09500
N1052       N  0.15644768  0.19068934  0.83443287     0.65800
H1053       H  0.19909008  0.18225382  0.82346222     0.18700
N1054       N  0.23366324  0.21169725  0.88725798     0.76300
H1055       H  0.19131006  0.21939056  0.89811705     0.10300
C1056       C  0.13938525  0.18844439  0.88799195     0.04000
C1057       C  0.12012901  0.19083283  0.90157842    -0.04800
C1058       C  0.11275378  0.21222977  0.90842396    -0.23200
C1059       C  0.12397948  0.23163676  0.90044005     0.13200
C1060       C  0.14324846  0.22934891  0.88682597    -0.12300
N1061       N  0.14774055  0.16620926  0.88339685     0.64900
H1062       H  0.11177092  0.17584215  0.90811188     0.12700
N1063       N  0.11670744  0.25365699  0.90715230     0.61500
H1064       H  0.15237522  0.24436118  0.88149209     0.08900
O1065       O  0.24193019  0.19623995  0.89942734    -0.40000
O1066       O  0.23984069  0.23188809  0.89026155    -0.39100
O1067       O  0.14372195  0.20659893  0.82810597    -0.39100
O1068       O  0.15376672  0.17120835  0.82617951    -0.36800
O1069       O  0.09932511  0.26230477  0.89831654    -0.37700
O1070       O  0.12692495  0.26396784  0.92278012    -0.33900
O1071       O  0.16658177  0.16011809  0.89134789    -0.35300
O1072       O  0.13483920  0.15162126  0.87467975    -0.39600
C1073       C  0.81107312  0.28721412  0.06157800    -0.13300
C1074       C  0.83253380  0.27782444  0.05803130     0.17100
C1075       C  0.84683945  0.27404504  0.07658635     0.03400
C1076       C  0.83961600  0.27964911  0.09837660    -0.11800
C1077       C  0.81819163  0.28934463  0.10219100    -0.02900
C1078       C  0.80387467  0.29323041  0.08336823     0.02600
C1079       C  0.84047402  0.27373289  0.03469335     0.09500
N1080       N  0.86875903  0.26438605  0.07350454     0.65800
H1081       H  0.85099480  0.27643322  0.11234163     0.18700
N1082       N  0.78228706  0.30378008  0.08588689     0.76300
H1083       H  0.80014682  0.29052672  0.04726735     0.10300
C1084       C  0.83085876  0.25671494  0.02115990     0.04000
C1085       C  0.83780133  0.25432553  0.99864300    -0.04800
C1086       C  0.85445536  0.26856174  0.98940532    -0.23200
C1087       C  0.86399127  0.28575162  0.00298528     0.13200
C1088       C  0.85705060  0.28800308  0.02554196    -0.12300
N1089       N  0.81468820  0.24124569  0.03035345     0.64900
H1090       H  0.83064691  0.24085529  0.98850983     0.12700
N1091       N  0.87988471  0.30164798  0.99385356     0.61500
H1092       H  0.86406465  0.30144796  0.03580635     0.08900
O1093       O  0.76451037  0.29206330  0.08445634    -0.40000
O1094       O  0.78090299  0.32506499  0.08584249    -0.39100
O1095       O  0.88608934  0.27680755  0.07433918    -0.39100
O1096       O  0.87095849  0.24320237  0.07249884    -0.36800
O1097       O  0.87528317  0.31225386  0.97589968    -0.37700
O1098       O  0.89719158  0.30711680  0.00508100    -0.33900
O1099       O  0.79498153  0.24032645  0.02223549    -0.35300
O1100       O  0.82086752  0.22671364  0.04471243    -0.39600
C1101       C  0.99322424  0.21439528  0.94309115    -0.13300
C1102       C  0.98685224  0.23293952  0.92981360     0.17100
C1103       C  0.00362948  0.24593003  0.91895735     0.03400
C1104       C  0.02647078  0.24040488  0.92178034    -0.11800
C1105       C  0.03291549  0.22204210  0.93538000    -0.02900
C1106       C  0.01600442  0.20874229  0.94585245     0.02600
C1107       C  0.96283898  0.23982994  0.92970266     0.09500
N1108       N  0.99769725  0.26497397  0.90531596     0.65800
H1109       H  0.03921526  0.25087345  0.91385732     0.18700
N1110       N  0.02166659  0.18951048  0.95941487     0.76300
H1111       H  0.98045967  0.20454106  0.95173445     0.10300
C1112       C  0.94573350  0.22526029  0.92182482     0.04000
C1113       C  0.92300737  0.23129073  0.92444316    -0.04800
C1114       C  0.91697298  0.25170462  0.93493427    -0.23200
C1115       C  0.93416667  0.26647681  0.94250351     0.13200
C1116       C  0.95687672  0.26032885  0.93994060    -0.12300
N1117       N  0.95121927  0.20413130  0.91148962     0.64900
H1118       H  0.91002356  0.21970506  0.91881413     0.12700
N1119       N  0.92886843  0.28774720  0.95276712     0.61500
H1120       H  0.96993746  0.27142583  0.94631482     0.08900
O1121       O  0.01534567  0.18856294  0.97979199    -0.40000
O1122       O  0.03063635  0.17241211  0.95037470    -0.39100
O1123       O  0.00260358  0.28467011  0.91186070    -0.39100
O1124       O  0.99038546  0.26195811  0.88550049    -0.36800
O1125       O  0.91714443  0.30207162  0.94215908    -0.37700
O1126       O  0.93791970  0.29321341  0.97130840    -0.33900
O1127       O  0.94675090  0.18587686  0.92160947    -0.35300
O1128       O  0.95771567  0.20364722  0.89116507    -0.39600
C1129       C  0.78970374  0.54054652  0.36270368    -0.13300
C1130       C  0.76968894  0.53078131  0.35460097     0.17100
C1131       C  0.75550637  0.54350417  0.34034529     0.03400
C1132       C  0.76132186  0.56576986  0.33465786    -0.11800
C1133       C  0.78133814  0.57577184  0.34282061    -0.02900
C1134       C  0.79561623  0.56279198  0.35704445     0.02600
C1135       C  0.76317189  0.50786546  0.36249656     0.09500
N1136       N  0.73542280  0.53379944  0.33103179     0.65800
H1137       H  0.75022041  0.57510433  0.32355702     0.18700
N1138       N  0.81579461  0.57207555  0.36657621     0.76300
H1139       H  0.80049326  0.53105517  0.37398623     0.10300
C1140       C  0.77674782  0.48888655  0.35784508     0.04000
C1141       C  0.77084108  0.46770779  0.36665860    -0.04800
C1142       C  0.75149432  0.46499054  0.38020820    -0.23200
C1143       C  0.73793395  0.48403878  0.38492378     0.13200
C1144       C  0.74385469  0.50523971  0.37606169    -0.12300
N1145       N  0.79646599  0.49086295  0.34399626     0.64900
H1146       H  0.78154164  0.45331104  0.36303823     0.12700
N1147       N  0.71787275  0.48204625  0.39826332     0.61500
H1148       H  0.73343601  0.51976843  0.37993928     0.08900
O1149       O  0.83482442  0.56619216  0.35893691    -0.40000
O1150       O  0.81472408  0.58335915  0.38464907    -0.39100
O1151       O  0.71632927  0.54171804  0.33628886    -0.39100
O1152       O  0.73691190  0.51938766  0.31538074    -0.36800
O1153       O  0.71721181  0.49070824  0.41775063    -0.37700
O1154       O  0.69983462  0.47512737  0.38921573    -0.33900
O1155       O  0.81581866  0.48843991  0.35263980    -0.35300
O1156       O  0.79446125  0.49225115  0.32279281    -0.39600
C1157       C  0.84056702  0.77693781  0.30860847    -0.13300
C1158       C  0.84099399  0.78424130  0.28601439     0.17100
C1159       C  0.83263779  0.76971484  0.26902649     0.03400
C1160       C  0.82454108  0.74814348  0.27481009    -0.11800
C1161       C  0.82435404  0.74077147  0.29741933    -0.02900
C1162       C  0.83253412  0.75542336  0.31440926     0.02600
C1163       C  0.85317256  0.80559665  0.28051975     0.09500
N1164       N  0.83208368  0.77673010  0.24587887     0.65800
H1165       H  0.81823282  0.73719021  0.26160260     0.18700
N1166       N  0.83476691  0.74797448  0.33732985     0.76300
H1167       H  0.84777841  0.78746616  0.32169222     0.10300
C1168       C  0.84793023  0.82610080  0.29150961     0.04000
C1169       C  0.86246137  0.84475339  0.28942887    -0.04800
C1170       C  0.88217345  0.84349607  0.27624263    -0.23200
C1171       C  0.88667669  0.82338257  0.26412787     0.13200
C1172       C  0.87238001  0.80462109  0.26659855    -0.12300
N1173       N  0.82812308  0.82804904  0.30524216     0.64900
H1174       H  0.85873639  0.85996758  0.29877308     0.12700
N1175       N  0.90581626  0.82167097  0.24939775     0.61500
H1176       H  0.87672098  0.78903036  0.25820505     0.08900
O1177       O  0.82427060  0.75809610  0.35289541    -0.40000
O1178       O  0.84968736  0.73357893  0.34235842    -0.39100
O1179       O  0.84311901  0.76590227  0.23118127    -0.39100
O1180       O  0.81822998  0.79171881  0.23969279    -0.36800
O1181       O  0.90651807  0.83329815  0.23150558    -0.37700
O1182       O  0.92044083  0.80648603  0.25264599    -0.33900
O1183       O  0.82991865  0.83263646  0.32600631    -0.35300
O1184       O  0.80883097  0.82766884  0.29614124    -0.39600
C1185       C  0.08642782  0.30282149  0.24848849    -0.13300
C1186       C  0.10611075  0.30681462  0.23577980     0.17100
C1187       C  0.11026013  0.32881659  0.22745437     0.03400
C1188       C  0.09417283  0.34593737  0.23079137    -0.11800
C1189       C  0.07413142  0.34166660  0.24284359    -0.02900
C1190       C  0.07076726  0.32007382  0.25251352     0.02600
C1191       C  0.11992781  0.28699631  0.22869223     0.09500
N1192       N  0.13054962  0.33394192  0.21527730     0.65800
H1193       H  0.09702948  0.36230788  0.22339741     0.18700
N1194       N  0.05140282  0.31530550  0.26629771     0.76300
H1195       H  0.08284100  0.28615490  0.25475210     0.10300
C1196       C  0.12629741  0.27004450  0.24426859     0.04000
C1197       C  0.13393784  0.24902729  0.23639462    -0.04800
C1198       C  0.13616904  0.24478102  0.21312581    -0.23200
C1199       C  0.13126876  0.26230839  0.19761430     0.13200
C1200       C  0.12309269  0.28308428  0.20546890    -0.12300
N1201       N  0.12496268  0.27389481  0.26814561     0.64900
H1202       H  0.13819653  0.23610524  0.24843981     0.12700
N1203       N  0.13262740  0.25875822  0.17371903     0.61500
H1204       H  0.11779259  0.29549240  0.19333561     0.08900
O1205       O  0.03893868  0.29855437  0.26187709    -0.40000
O1206       O  0.04803024  0.32648265  0.28415469    -0.39100
O1207       O  0.12947021  0.34273701  0.19584944    -0.39100
O1208       O  0.14948901  0.33196392  0.22490018    -0.36800
O1209       O  0.14732991  0.26915371  0.16224640    -0.37700
O1210       O  0.11720820  0.24790422  0.16372991    -0.33900
O1211       O  0.11506115  0.25980377  0.28077373    -0.35300
O1212       O  0.13560658  0.29019230  0.27688192    -0.39600
C1213       C  0.95512765  0.35008197  0.24048771    -0.13300
C1214       C  0.94916029  0.34783420  0.21762653     0.17100
C1215       C  0.96560489  0.35196005  0.20077622     0.03400
C1216       C  0.98758442  0.35838320  0.20709825    -0.11800
C1217       C  0.99330484  0.36108644  0.22995919    -0.02900
C1218       C  0.97705480  0.35649639  0.24671763     0.02600
C1219       C  0.92552520  0.34167233  0.21187346     0.09500
N1220       N  0.95998670  0.35065709  0.17726184     0.65800
H1221       H  0.00006353  0.36182740  0.19415694     0.18700
N1222       N  0.98280851  0.35780723  0.27013918     0.76300
H1223       H  0.94273048  0.34668688  0.25352828     0.10300
C1224       C  0.92000193  0.32097051  0.20145251     0.04000
C1225       C  0.89735109  0.31602799  0.19635133    -0.04800
C1226       C  0.87979806  0.33113222  0.20195206    -0.23200
C1227       C  0.88556709  0.35191274  0.21233350     0.13200
C1228       C  0.90821276  0.35692555  0.21715428    -0.12300
N1229       N  0.93699600  0.30432192  0.19702384     0.64900
H1230       H  0.89347806  0.29992522  0.18866353     0.12700
N1231       N  0.86875081  0.36827385  0.21800424     0.61500
H1232       H  0.91233105  0.37288538  0.22504436     0.08900
O1233       O  0.99187281  0.34109215  0.27980882    -0.40000
O1234       O  0.97684031  0.37472690  0.28164633    -0.39100
O1235       O  0.94556397  0.36404786  0.16902914    -0.39100
O1236       O  0.97159453  0.33843252  0.16419122    -0.36800
O1237       O  0.86176018  0.36969344  0.23812077    -0.37700
O1238       O  0.86380695  0.38359547  0.20399797    -0.33900
O1239       O  0.94778333  0.29565773  0.21327620    -0.35300
O1240       O  0.93862142  0.29568897  0.17757606    -0.39600
C1241       C  0.11741413  0.68796631  0.30730173    -0.13300
C1242       C  0.11964182  0.68100890  0.28473942     0.17100
C1243       C  0.13124339  0.69512755  0.26934477     0.03400
C1244       C  0.14010369  0.71597624  0.27663323    -0.11800
C1245       C  0.13723418  0.72319515  0.29910128    -0.02900
C1246       C  0.12603584  0.70876317  0.31453976     0.02600
C1247       C  0.10728073  0.66032608  0.27744673     0.09500
N1248       N  0.13380340  0.68871774  0.24618103     0.65800
H1249       H  0.14840801  0.72680785  0.26460108     0.18700
N1250       N  0.12299848  0.71507880  0.33768095     0.76300
H1251       H  0.10824890  0.67763861  0.31913985     0.10300
C1252       C  0.11066228  0.63934962  0.28832134     0.04000
C1253       C  0.09573114  0.62132832  0.28437413    -0.04800
C1254       C  0.07724959  0.62381908  0.26969962    -0.23200
C1255       C  0.07449639  0.64447995  0.25797161     0.13200
C1256       C  0.08939373  0.66251083  0.26199779    -0.12300
N1257       N  0.12872886  0.63637068  0.30409581     0.64900
H1258       H  0.09797601  0.60576536  0.29355977     0.12700
N1259       N  0.05634983  0.64758790  0.24227579     0.61500
H1260       H  0.08640805  0.67847026  0.25380273     0.08900
O1261       O  0.10391843  0.72187704  0.34438053    -0.40000
O1262       O  0.13809389  0.71033734  0.35198848    -0.39100
O1263       O  0.12424134  0.70008152  0.23085718    -0.39100
O1264       O  0.14792887  0.67365989  0.24086664    -0.36800
O1265       O  0.04169647  0.66268139  0.24578807    -0.37700
O1266       O  0.05678406  0.63753486  0.22346722    -0.33900
O1267       O  0.12441369  0.63242108  0.32463070    -0.35300
O1268       O  0.14881088  0.63489869  0.29704264    -0.39600
C1269       C  0.96609444  0.61966653  0.30071684    -0.13300
C1270       C  0.95014845  0.61292295  0.28451118     0.17100
C1271       C  0.95726262  0.60066317  0.26544532     0.03400
C1272       C  0.98012375  0.59521469  0.26287389    -0.11800
C1273       C  0.99614922  0.60177874  0.27913367    -0.02900
C1274       C  0.98899298  0.61417638  0.29820535     0.02600
C1275       C  0.92615663  0.61899342  0.28773802     0.09500
N1276       N  0.94134243  0.59322533  0.24887065     0.65800
H1277       H  0.98541644  0.58572326  0.24808808     0.18700
N1278       N  0.00459648  0.62052525  0.31552787     0.76300
H1279       H  0.96066543  0.62909505  0.31548874     0.10300
C1280       C  0.91331529  0.60885389  0.30495219     0.04000
C1281       C  0.89119851  0.61606416  0.30893572    -0.04800
C1282       C  0.88140252  0.63349900  0.29600327    -0.23200
C1283       C  0.89429815  0.64342171  0.27840287     0.13200
C1284       C  0.91646066  0.63598059  0.27434937    -0.12300
N1285       N  0.92252129  0.59106384  0.31846161     0.64900
H1286       H  0.88174073  0.60793041  0.32228099     0.12700
N1287       N  0.88567716  0.66174381  0.26521221     0.61500
H1288       H  0.92637314  0.64397102  0.26124622     0.08900
O1289       O  0.01007704  0.64100967  0.31783010    -0.40000
O1290       O  0.00971422  0.60649192  0.33076843    -0.39100
O1291       O  0.94103323  0.60233743  0.22957044    -0.39100
O1292       O  0.92949515  0.57586579  0.25257855    -0.36800
O1293       O  0.88710874  0.68167320  0.27266803    -0.37700
O1294       O  0.88024985  0.65850718  0.24483134    -0.33900
O1295       O  0.92785574  0.59482634  0.33877435    -0.35300
O1296       O  0.92208035  0.57101303  0.31122496    -0.39600
C1297       C  0.07160399  0.50609402  0.26606400    -0.13300
C1298       C  0.05473643  0.49483484  0.25369264     0.17100
C1299       C  0.03733767  0.50747192  0.24363960     0.03400
C1300       C  0.03633743  0.53082620  0.24683683    -0.11800
C1301       C  0.05218254  0.54213182  0.26052687    -0.02900
C1302       C  0.07039157  0.52960277  0.26969475     0.02600
C1303       C  0.05369817  0.46978283  0.25336639     0.09500
N1304       N  0.02001448  0.49658835  0.23079340     0.65800
H1305       H  0.02259953  0.54008917  0.23909896     0.18700
N1306       N  0.08673661  0.54006533  0.28409822     0.76300
H1307       H  0.08496083  0.49645444  0.27398291     0.10300
C1308       C  0.06787758  0.45675857  0.23939279     0.04000
C1309       C  0.06504290  0.43318253  0.23843871    -0.04800
C1310       C  0.04801836  0.42235239  0.25110528    -0.23200
C1311       C  0.03457755  0.43539763  0.26591421     0.13200
C1312       C  0.03737316  0.45891441  0.26672652    -0.12300
N1313       N  0.08428907  0.46737388  0.22513756     0.64900
H1314       H  0.07535871  0.42347397  0.22687894     0.12700
N1315       N  0.01831560  0.42493287  0.28051424     0.61500
H1316       H  0.02673056  0.46880563  0.27783338     0.08900
O1317       O  0.10700967  0.54180056  0.27765504    -0.40000
O1318       O  0.08164942  0.54472016  0.30429464    -0.39100
O1319       O  0.00074078  0.49344923  0.23940893    -0.39100
O1320       O  0.02326699  0.49215540  0.21017898    -0.36800
O1321       O  0.02462364  0.41037498  0.29479385    -0.37700
O1322       O  0.99812892  0.43183033  0.28075844    -0.33900
O1323       O  0.10504607  0.46333066  0.22792174    -0.35300
O1324       O  0.07795078  0.47895015  0.20836111    -0.39600
C1325       C  0.26660077  0.91687400  0.63001492    -0.13300
C1326       C  0.27467741  0.93437316  0.64379795     0.17100
C1327       C  0.28568904  0.92901281  0.66419370     0.03400
C1328       C  0.28889306  0.90639517  0.67024972    -0.11800
C1329       C  0.28130118  0.88868363  0.65626991    -0.02900
C1330       C  0.26975942  0.89420185  0.63602790     0.02600
C1331       C  0.27048781  0.95812771  0.63712736     0.09500
N1332       N  0.29419236  0.94637750  0.67869477     0.65800
H1333       H  0.29767087  0.90278778  0.68587093     0.18700
N1334       N  0.26063741  0.87713712  0.62159022     0.76300
H1335       H  0.25754336  0.92083998  0.61464269     0.10300
C1336       C  0.27815442  0.96662993  0.61623504     0.04000
C1337       C  0.27306760  0.98885394  0.60995806    -0.04800
C1338       C  0.26025630  0.00293341  0.62418183    -0.23200
C1339       C  0.25215581  0.99417634  0.64496162     0.13200
C1340       C  0.25755734  0.97201659  0.65131989    -0.12300
N1341       N  0.29172114  0.95308373  0.60151727     0.64900
H1342       H  0.27973752  0.99529348  0.59423016     0.12700
N1343       N  0.23757905  0.00712678  0.65930907     0.61500
H1344       H  0.25099730  0.96536942  0.66700350     0.08900
O1345       O  0.27189139  0.87045240  0.60474256    -0.40000
O1346       O  0.23997324  0.87205780  0.62312165    -0.39100
O1347       O  0.28606345  0.94880774  0.69828157    -0.39100
O1348       O  0.31153427  0.95743808  0.67298887    -0.36800
O1349       O  0.24256085  0.00993643  0.67987541    -0.37700
O1350       O  0.21855672  0.01357595  0.65211391    -0.33900
O1351       O  0.28442046  0.94772549  0.58219734    -0.35300
O1352       O  0.31179069  0.94830134  0.60694130    -0.39600
C1353       C  0.34485508  0.69227194  0.69716002    -0.13300
C1354       C  0.33545135  0.68064918  0.71542855     0.17100
C1355       C  0.31747314  0.69041118  0.72756537     0.03400
C1356       C  0.30947879  0.71197414  0.72146084    -0.11800
C1357       C  0.31944902  0.72409477  0.70348909    -0.02900
C1358       C  0.33724868  0.71372852  0.69115579     0.02600
C1359       C  0.34705415  0.65979590  0.72269376     0.09500
N1360       N  0.30742884  0.67875722  0.74621039     0.65800
H1361       H  0.29587840  0.71942185  0.73113412     0.18700
N1362       N  0.34841929  0.72491117  0.67283889     0.76300
H1363       H  0.35888496  0.68494755  0.68797402     0.10300
C1364       C  0.34478135  0.63966536  0.71023554     0.04000
C1365       C  0.36068697  0.62231298  0.71287437    -0.04800
C1366       C  0.37911393  0.62492390  0.72763122    -0.23200
C1367       C  0.38047796  0.64447434  0.74120833     0.13200
C1368       C  0.36450288  0.66174459  0.73861248    -0.12300
N1369       N  0.32733459  0.63733347  0.69369698     0.64900
H1370       H  0.35941523  0.60741431  0.70240472     0.12700
N1371       N  0.39835133  0.64726016  0.75724552     0.61500
H1372       H  0.36647505  0.67723519  0.74807209     0.08900
O1373       O  0.34272761  0.72050696  0.65275528    -0.40000
O1374       O  0.36657504  0.73552056  0.67650717    -0.39100
O1375       O  0.31097407  0.68548577  0.76614222    -0.39100
O1376       O  0.29283257  0.66361282  0.74262667    -0.36800
O1377       O  0.41288415  0.66263875  0.75443771    -0.37700
O1378       O  0.39789370  0.63637877  0.77560624    -0.33900
O1379       O  0.33127074  0.64231078  0.67331345    -0.35300
O1380       O  0.30906983  0.62758624  0.69887922    -0.39600
C1381       C  0.24871076  0.83034366  0.79676134    -0.13300
C1382       C  0.25918841  0.85025027  0.80437260     0.17100
C1383       C  0.27694946  0.85965157  0.79164258     0.03400
C1384       C  0.28400811  0.84923999  0.77170146    -0.11800
C1385       C  0.27335534  0.82959038  0.76350398    -0.02900
C1386       C  0.25569139  0.81991329  0.77650077     0.02600
C1387       C  0.25201535  0.86138875  0.82566709     0.09500
N1388       N  0.28733420  0.88047930  0.79824500     0.65800
H1389       H  0.29750591  0.85712001  0.76227294     0.18700
N1390       N  0.24440239  0.79982478  0.76927831     0.76300
H1391       H  0.23518314  0.82294280  0.80651246     0.10300
C1392       C  0.23126965  0.87297382  0.82711677     0.04000
C1393       C  0.22730520  0.88780285  0.84518128    -0.04800
C1394       C  0.24360779  0.89087843  0.86215172    -0.23200
C1395       C  0.26357120  0.87792762  0.86163466     0.13200
C1396       C  0.26767700  0.86339172  0.84340598    -0.12300
N1397       N  0.21479199  0.87106578  0.80956843     0.64900
H1398       H  0.21189051  0.89763261  0.84549033     0.12700
N1399       N  0.28062573  0.88078737  0.87850553     0.61500
H1400       H  0.28366469  0.85457498  0.84245223     0.08900
O1401       O  0.22510238  0.80116108  0.76028946    -0.40000
O1402       O  0.25195894  0.78078064  0.77520243    -0.39100
O1403       O  0.30805528  0.88094756  0.80329845    -0.39100
O1404       O  0.27648775  0.89876000  0.79650426    -0.36800
O1405       O  0.28111202  0.86773693  0.89538772    -0.37700
O1406       O  0.29696585  0.89404096  0.87491600    -0.33900
O1407       O  0.19797053  0.85820382  0.81222944    -0.35300
O1408       O  0.21533758  0.88447704  0.79297339    -0.39600
C1409       C  0.64219577  0.29318535  0.94711685    -0.13300
C1410       C  0.62324581  0.27961183  0.95147977     0.17100
C1411       C  0.61016642  0.27171846  0.93326286     0.03400
C1412       C  0.61624732  0.27720737  0.91107085    -0.11800
C1413       C  0.63532028  0.29067658  0.90644514    -0.02900
C1414       C  0.64819728  0.29900397  0.92488554     0.02600
C1415       C  0.61633940  0.27501939  0.97514107     0.09500
N1416       N  0.59090946  0.25761654  0.93707611     0.65800
H1417       H  0.60609152  0.27050495  0.89737828     0.18700
N1418       N  0.66684219  0.31404117  0.92148629     0.76300
H1419       H  0.65198893  0.29984592  0.96109677     0.10300
C1420       C  0.63006241  0.26241869  0.98993935     0.04000
C1421       C  0.62284421  0.25830250  0.01215358    -0.04800
C1422       C  0.60211333  0.26684411  0.02011843    -0.23200
C1423       C  0.58882182  0.28031563  0.00541254     0.13200
C1424       C  0.59587067  0.28390303  0.98306890    -0.12300
N1425       N  0.65098586  0.25301702  0.98236841     0.64900
H1426       H  0.63321556  0.24782328  0.02298415     0.12700
N1427       N  0.56867685  0.29131794  0.01312188     0.61500
H1428       H  0.58561085  0.29423081  0.97197850     0.08900
O1429       O  0.68665366  0.30762459  0.92610516    -0.40000
O1430       O  0.66317792  0.33463331  0.91727817    -0.39100
O1431       O  0.57128438  0.26525204  0.93369450    -0.39100
O1432       O  0.59359990  0.23687943  0.94126671    -0.36800
O1433       O  0.56969038  0.30535550  0.02915342    -0.37700
O1434       O  0.55042443  0.28900712  0.00230332    -0.33900
O1435       O  0.66942599  0.26046542  0.99009413    -0.35300
O1436       O  0.65095384  0.23565961  0.96998494    -0.39600
C1437       C  0.54915314  0.35614857  0.78696825    -0.13300
C1438       C  0.53100174  0.34203762  0.79272900     0.17100
C1439       C  0.53536607  0.32087029  0.80266968     0.03400
C1440       C  0.55768179  0.31434622  0.80716418    -0.11800
C1441       C  0.57598036  0.32867571  0.80193724    -0.02900
C1442       C  0.57146085  0.34974524  0.79147817     0.02600
C1443       C  0.50767483  0.34963862  0.78776004     0.09500
N1444       N  0.51725539  0.30612678  0.80894493     0.65800
H1445       H  0.56060399  0.29813552  0.81503295     0.18700
N1446       N  0.58919945  0.36508078  0.78558982     0.76300
H1447       H  0.54597808  0.37225263  0.77897056     0.10300
C1448       C  0.49931326  0.37001315  0.79679082     0.04000
C1449       C  0.47781583  0.37766200  0.79062979    -0.04800
C1450       C  0.46424564  0.36519653  0.77566668    -0.23200
C1451       C  0.47273811  0.34493555  0.76635447     0.13200
C1452       C  0.49427649  0.33724365  0.77260005    -0.12300
N1453       N  0.51216334  0.38267797  0.81289776     0.64900
H1454       H  0.47137653  0.39295956  0.79821542     0.12700
N1455       N  0.46015786  0.33260129  0.74976914     0.61500
H1456       H  0.50085435  0.32199389  0.76506277     0.08900
O1457       O  0.59542489  0.37991862  0.79958727    -0.40000
O1458       O  0.59600843  0.36613800  0.76538791    -0.39100
O1459       O  0.51468854  0.28752219  0.79884740    -0.39100
O1460       O  0.50538977  0.31054472  0.82612278    -0.36800
O1461       O  0.45580442  0.31194403  0.75285732    -0.37700
O1462       O  0.45584828  0.34157137  0.73087941    -0.33900
O1463       O  0.51792049  0.40275750  0.80854450    -0.35300
O1464       O  0.51580725  0.37460437  0.83232253    -0.39600
C1465       C  0.67315918  0.33825486  0.70351977    -0.13300
C1466       C  0.69600449  0.33706484  0.69734409     0.17100
C1467       C  0.71117665  0.32501859  0.71126837     0.03400
C1468       C  0.70355070  0.31545539  0.73166106    -0.11800
C1469       C  0.68096719  0.31800553  0.73852346    -0.02900
C1470       C  0.66557088  0.32889347  0.72387973     0.02600
C1471       C  0.70395452  0.35179165  0.67861836     0.09500
N1472       N  0.73452358  0.32316730  0.70532407     0.65800
H1473       H  0.71554823  0.30722408  0.74271193     0.18700
N1474       N  0.64229402  0.33139062  0.72990268     0.76300
H1475       H  0.66139511  0.34760888  0.69313222     0.10300
C1476       C  0.69495028  0.35001264  0.65662721     0.04000
C1477       C  0.69927195  0.36701600  0.64064425    -0.04800
C1478       C  0.71268976  0.38587921  0.64612143    -0.23200
C1479       C  0.72246607  0.38711895  0.66791195     0.13200
C1480       C  0.71784664  0.37025990  0.68393426    -0.12300
N1481       N  0.68101746  0.33124077  0.65046612     0.64900
H1482       H  0.69154585  0.36579254  0.62413982     0.12700
N1483       N  0.73701946  0.40543057  0.67410813     0.61500
H1484       H  0.72455600  0.37197301  0.70083248     0.08900
O1485       O  0.62871838  0.31526575  0.72661134    -0.40000
O1486       O  0.63472173  0.35063107  0.73509305    -0.39100
O1487       O  0.74930660  0.33323005  0.71695822    -0.39100
O1488       O  0.74056457  0.30912658  0.69045690    -0.36800
O1489       O  0.73250804  0.41729748  0.69125707    -0.37700
O1490       O  0.75568895  0.40804876  0.66409722    -0.33900
O1491       O  0.66068887  0.33441342  0.64482324    -0.35300
O1492       O  0.68973743  0.31193612  0.64804617    -0.39600
C1493       C  0.76777663  0.25047203  0.85178454    -0.13300
C1494       C  0.77996385  0.26659801  0.86423470     0.17100
C1495       C  0.77206799  0.28903119  0.86517024     0.03400
C1496       C  0.75196197  0.29486407  0.85435263    -0.11800
C1497       C  0.73908463  0.27863338  0.84278165    -0.02900
C1498       C  0.74744518  0.25634767  0.84097585     0.02600
C1499       C  0.80041303  0.26010970  0.87711676     0.09500
N1500       N  0.78348215  0.30575242  0.87840471     0.65800
H1501       H  0.74585752  0.31202420  0.85592527     0.18700
N1502       N  0.73487068  0.23922954  0.82948644     0.76300
H1503       H  0.77379092  0.23324530  0.85089085     0.10300
C1504       C  0.79889735  0.24562756  0.89596818     0.04000
C1505       C  0.81703215  0.24414133  0.91108243    -0.04800
C1506       C  0.83675425  0.25698636  0.90775248    -0.23200
C1507       C  0.83898008  0.26992620  0.88779647     0.13200
C1508       C  0.82088432  0.27123758  0.87260411    -0.12300
N1509       N  0.77843138  0.23377616  0.90096429     0.64900
H1510       H  0.81527874  0.23375822  0.92607396     0.12700
N1511       N  0.85859412  0.28347070  0.88372870     0.61500
H1512       H  0.82221889  0.28229261  0.85806005     0.08900
O1513       O  0.72252417  0.22584590  0.84063284    -0.40000
O1514       O  0.73867062  0.23539509  0.80884127    -0.39100
O1515       O  0.79223461  0.32272346  0.86886549    -0.39100
O1516       O  0.78241669  0.30497654  0.89971399    -0.36800
O1517       O  0.87160487  0.27870317  0.86749974    -0.37700
O1518       O  0.86107129  0.30192299  0.89412616    -0.33900
O1519       O  0.77720750  0.21279444  0.89736555    -0.35300
O1520       O  0.76294105  0.24349651  0.91193945    -0.39600
C1521       C  0.74963427  0.47034640  0.14900119    -0.13300
C1522       C  0.76703126  0.45736029  0.13958442     0.17100
C1523       C  0.77935158  0.46574176  0.12103230     0.03400
C1524       C  0.77424040  0.48706176  0.11212607    -0.11800
C1525       C  0.75687199  0.50018353  0.12155129    -0.02900
C1526       C  0.74436903  0.49161854  0.14003516     0.02600
C1527       C  0.77078682  0.43423281  0.14798679     0.09500
N1528       N  0.79704132  0.45268981  0.11104824     0.65800
H1529       H  0.78404190  0.49352009  0.09817499     0.18700
N1530       N  0.72567073  0.50390557  0.14920824     0.76300
H1531       H  0.73980778  0.46370504  0.16284502     0.10300
C1532       C  0.78637268  0.42961843  0.16530476     0.04000
C1533       C  0.78982945  0.40728132  0.17237104    -0.04800
C1534       C  0.77774221  0.38931156  0.16248347    -0.23200
C1535       C  0.76149046  0.39430347  0.14560188     0.13200
C1536       C  0.75830817  0.41659721  0.13846296    -0.12300
N1537       N  0.79869258  0.44747771  0.17589882     0.64900
H1538       H  0.80221553  0.40402235  0.18545191     0.12700
N1539       N  0.74730080  0.37718197  0.13621407     0.61500
H1540       H  0.74592221  0.42019674  0.12545421     0.08900
O1541       O  0.70780367  0.50608845  0.13774924    -0.40000
O1542       O  0.72583329  0.50983914  0.16970404    -0.39100
O1543       O  0.79313506  0.44115971  0.09353957    -0.39100
O1544       O  0.81708067  0.45485800  0.11802924    -0.36800
O1545       O  0.72748251  0.37486293  0.14376146    -0.37700
O1546       O  0.75250821  0.36829264  0.11753123    -0.33900
O1547       O  0.79156966  0.45579324  0.19420598    -0.35300
O1548       O  0.81819490  0.45254980  0.16887973    -0.39600
C1549       C  0.73985800  0.60981478  0.16263662    -0.13300
C1550       C  0.76111046  0.61199605  0.17293677     0.17100
C1551       C  0.77990969  0.60052042  0.16376578     0.03400
C1552       C  0.77685168  0.58606911  0.14535649    -0.11800
C1553       C  0.75530673  0.58258404  0.13620168    -0.02900
C1554       C  0.73682566  0.59514219  0.14432597     0.02600
C1555       C  0.76283741  0.62338024  0.19504381     0.09500
N1556       N  0.80170307  0.60167458  0.17423496     0.65800
H1557       H  0.79108577  0.57635065  0.13912221     0.18700
N1558       N  0.71463762  0.59173465  0.13538861     0.76300
H1559       H  0.72534924  0.61849128  0.16971140     0.10300
C1560       C  0.77652261  0.64256892  0.19821516     0.04000
C1561       C  0.78127627  0.64997907  0.22020217    -0.04800
C1562       C  0.77217258  0.63879775  0.23916090    -0.23200
C1563       C  0.75743928  0.62026000  0.23571689     0.13200
C1564       C  0.75296583  0.61275782  0.21377483    -0.12300
N1565       N  0.78564479  0.65462080  0.17928275     0.64900
H1566       H  0.79217876  0.66446164  0.22243062     0.12700
N1567       N  0.74815656  0.60778898  0.25425053     0.61500
H1568       H  0.74268067  0.59783786  0.21141021     0.08900
O1569       O  0.70528518  0.60714002  0.12397859    -0.40000
O1570       O  0.70353071  0.57432448  0.14078461    -0.39100
O1571       O  0.80467720  0.59286632  0.19345586    -0.39100
O1572       O  0.81864652  0.60776775  0.16275727    -0.36800
O1573       O  0.72800817  0.61130767  0.26031654    -0.37700
O1574       O  0.75860917  0.59082743  0.26187159    -0.33900
O1575       O  0.77248703  0.66300308  0.16472060    -0.35300
O1576       O  0.80644931  0.65933797  0.17858012    -0.39600
C1577       C  0.68357892  0.61194671  0.84240997    -0.13300
C1578       C  0.69635048  0.60729947  0.82288835     0.17100
C1579       C  0.71255020  0.58984823  0.82350652     0.03400
C1580       C  0.71450649  0.57635289  0.84283983    -0.11800
C1581       C  0.70030845  0.57972799  0.86158581    -0.02900
C1582       C  0.68527055  0.59816721  0.86161514     0.02600
C1583       C  0.69127136  0.61957861  0.80158474     0.09500
N1584       N  0.72588987  0.58446335  0.80406913     0.65800
H1585       H  0.72620551  0.56235894  0.84271955     0.18700
N1586       N  0.67020512  0.60189118  0.88014242     0.76300
H1587       H  0.67141216  0.62551958  0.84228535     0.10300
C1588       C  0.66905086  0.62006026  0.79291489     0.04000
C1589       C  0.66453409  0.63154362  0.77277705    -0.04800
C1590       C  0.68195551  0.64186030  0.76041052    -0.23200
C1591       C  0.70415781  0.64164737  0.76910732     0.13200
C1592       C  0.70862384  0.63067550  0.78968685    -0.12300
N1593       N  0.65117515  0.60760147  0.80349266     0.64900
H1594       H  0.64756253  0.63110446  0.76604492     0.12700
N1595       N  0.72213727  0.65305456  0.75761955     0.61500
H1596       H  0.72558514  0.63085877  0.79639559     0.08900
O1597       O  0.65169338  0.59130738  0.88105180    -0.40000
O1598       O  0.67382303  0.61798314  0.89365572    -0.39100
O1599       O  0.74704130  0.58723342  0.80459737    -0.39100
O1600       O  0.71697609  0.57437243  0.78752077    -0.36800
O1601       O  0.72272946  0.67437576  0.75743084    -0.37700
O1602       O  0.73889751  0.64200879  0.75041479    -0.33900
O1603       O  0.63335271  0.61761396  0.80957711    -0.35300
O1604       O  0.65190138  0.58628468  0.80390471    -0.39600
C1605       C  0.67328153  0.46222046  0.88434932    -0.13300
C1606       C  0.68803343  0.45340142  0.86799826     0.17100
C1607       C  0.70493398  0.46729665  0.85862903     0.03400
C1608       C  0.70661176  0.48987644  0.86537647    -0.11800
C1609       C  0.69184377  0.49878091  0.88169263    -0.02900
C1610       C  0.67494138  0.48483017  0.89121063     0.02600
C1611       C  0.68449835  0.43011026  0.85974308     0.09500
N1612       N  0.72095785  0.45845618  0.84281429     0.65800
H1613       H  0.71982336  0.50030491  0.85834201     0.18700
N1614       N  0.65872569  0.49360152  0.90697242     0.76300
H1615       H  0.65996800  0.45176525  0.89111571     0.10300
C1616       C  0.68595514  0.41153931  0.87448110     0.04000
C1617       C  0.68171418  0.38979023  0.86638379    -0.04800
C1618       C  0.67565652  0.38607196  0.84365490    -0.23200
C1619       C  0.67375085  0.40486564  0.82897538     0.13200
C1620       C  0.67841028  0.42662712  0.83707102    -0.12300
N1621       N  0.69190902  0.41450155  0.89771979     0.64900
H1622       H  0.68301484  0.37582312  0.87806272     0.12700
N1623       N  0.66691125  0.40229099  0.80593379     0.61500
H1624       H  0.67679321  0.44087842  0.82579194     0.08900
O1625       O  0.65336146  0.48227382  0.92426620    -0.40000
O1626       O  0.64786305  0.51136790  0.90232728    -0.39100
O1627       O  0.72249957  0.46688991  0.82326305    -0.39100
O1628       O  0.73499894  0.44366807  0.84907595    -0.36800
O1629       O  0.64621118  0.40348792  0.80089515    -0.37700
O1630       O  0.68155926  0.40276602  0.79041835    -0.33900
O1631       O  0.67723014  0.41147435  0.91292384    -0.35300
O1632       O  0.71236297  0.41716235  0.90316455    -0.39600
C1633       C  0.70119744  0.54733404  0.98283780    -0.13300
C1634       C  0.72104634  0.55905765  0.98846080     0.17100
C1635       C  0.73405566  0.56893922  0.97105418     0.03400
C1636       C  0.72726966  0.56660480  0.94844595    -0.11800
C1637       C  0.70744941  0.55475353  0.94283905    -0.02900
C1638       C  0.69402883  0.54550886  0.96035097     0.02600
C1639       C  0.72840338  0.55931546  0.01248105     0.09500
N1640       N  0.75420727  0.58134004  0.97604006     0.65800
H1641       H  0.73775505  0.57357763  0.93527275     0.18700
N1642       N  0.67298934  0.53439506  0.95562512     0.76300
H1643       H  0.69127481  0.53950971  0.99595071     0.10300
C1644       C  0.71350753  0.56613181  0.02987481     0.04000
C1645       C  0.71971676  0.56329319  0.05252465    -0.04800
C1646       C  0.74071342  0.55400970  0.05823563    -0.23200
C1647       C  0.75595549  0.54784476  0.04100276     0.13200
C1648       C  0.74958841  0.55023741  0.01828543    -0.12300
N1649       N  0.69191808  0.57576627  0.02478224     0.64900
H1650       H  0.70799701  0.56808990  0.06572599     0.12700
N1651       N  0.77796044  0.53932942  0.04640485     0.61500
H1652       H  0.76103242  0.54465446  0.00519059     0.08900
O1653       O  0.65830943  0.54403757  0.94350296    -0.40000
O1654       O  0.66809480  0.51605954  0.96541157    -0.39100
O1655       O  0.77306027  0.57430432  0.96895216    -0.39100
O1656       O  0.75278830  0.60084258  0.98453652    -0.36800
O1657       O  0.79157692  0.55124674  0.05772189    -0.37700
O1658       O  0.78406456  0.52015583  0.03936135    -0.33900
O1659       O  0.67411339  0.56657848  0.03216934    -0.35300
O1660       O  0.69076406  0.59469079  0.01499640    -0.39600
C1661       C  0.30218864  0.74770734  0.38640449    -0.13300
C1662       C  0.30446778  0.76513813  0.37042232     0.17100
C1663       C  0.32467213  0.77788031  0.37004445     0.03400
C1664       C  0.34165576  0.77371611  0.38612287    -0.11800
C1665       C  0.33894639  0.75687957  0.40266870    -0.02900
C1666       C  0.31926995  0.74335563  0.40230907     0.02600
C1667       C  0.28412402  0.77223717  0.35735231     0.09500
N1668       N  0.32790896  0.79550381  0.35378761     0.65800
H1669       H  0.35661840  0.78416117  0.38617692     0.18700
N1670       N  0.31633031  0.72525510  0.41812184     0.76300
H1671       H  0.28676603  0.73799682  0.38708035     0.10300
C1672       C  0.27183083  0.75712055  0.34353218     0.04000
C1673       C  0.25044395  0.76332929  0.33508515    -0.04800
C1674       C  0.24095119  0.78442875  0.34041942    -0.23200
C1675       C  0.25382761  0.79987895  0.35335230     0.13200
C1676       C  0.27509515  0.79369938  0.36164718    -0.12300
N1677       N  0.28063800  0.73523954  0.33837106     0.64900
H1678       H  0.24088828  0.75131144  0.32524628     0.12700
N1679       N  0.24525421  0.82178874  0.35881991     0.61500
H1680       H  0.28408894  0.80535224  0.37240863     0.08900
O1681       O  0.33007446  0.70894893  0.41824021    -0.40000
O1682       O  0.29865311  0.72419385  0.43004190    -0.39100
O1683       O  0.33054741  0.81564457  0.36028767    -0.39100
O1684       O  0.33112108  0.79055917  0.33327926    -0.36800
O1685       O  0.23895570  0.82598202  0.37877350    -0.37700
O1686       O  0.24748367  0.83778578  0.34486744    -0.33900
O1687       O  0.27073167  0.71778950  0.34564855    -0.35300
O1688       O  0.29639686  0.73328450  0.32411393    -0.39600
C1689       C  0.33142732  0.75739798  0.51755951    -0.13300
C1690       C  0.34221450  0.77475441  0.52969039     0.17100
C1691       C  0.36042829  0.78635531  0.51945954     0.03400
C1692       C  0.36766192  0.78030321  0.49767744    -0.11800
C1693       C  0.35675490  0.76308852  0.48546085    -0.02900
C1694       C  0.33848816  0.75148367  0.49564324     0.02600
C1695       C  0.33525221  0.77948136  0.55351349     0.09500
N1696       N  0.37120195  0.80492396  0.53062026     0.65800
H1697       H  0.38132518  0.78960129  0.48997992     0.18700
N1698       N  0.32756987  0.73300587  0.48441533     0.76300
H1699       H  0.31801360  0.74790160  0.52540506     0.10300
C1700       C  0.31252390  0.78381081  0.55933845     0.04000
C1701       C  0.30656725  0.78773633  0.58196794    -0.04800
C1702       C  0.32286462  0.78747554  0.59929660    -0.23200
C1703       C  0.34558609  0.78260839  0.59347583     0.13200
C1704       C  0.35150238  0.77867470  0.57082604    -0.12300
N1705       N  0.29532761  0.78487583  0.54238420     0.64900
H1706       H  0.28906490  0.79125792  0.58590579     0.12700
N1707       N  0.36301078  0.78195601  0.61021357     0.61500
H1708       H  0.36889735  0.77481622  0.56677189     0.08900
O1709       O  0.33906421  0.71637944  0.47760727    -0.40000
O1710       O  0.30626352  0.73206052  0.48361846    -0.39100
O1711       O  0.39229796  0.80470671  0.53381637    -0.39100
O1712       O  0.36006640  0.82256597  0.53503917    -0.36800
O1713       O  0.36868479  0.76329854  0.61886508    -0.37700
O1714       O  0.37497069  0.79927080  0.61372351    -0.33900
O1715       O  0.27922238  0.77087157  0.54268543    -0.35300
O1716       O  0.29468405  0.80142845  0.52892966    -0.39600
C1717       C  0.62052798  0.71091536  0.51699880    -0.13300
C1718       C  0.60743805  0.69697420  0.53098550     0.17100
C1719       C  0.58768680  0.68684279  0.52229562     0.03400
C1720       C  0.58174832  0.69026310  0.49961980    -0.11800
C1721       C  0.59486108  0.70418073  0.48548535    -0.02900
C1722       C  0.61431126  0.71482007  0.49446782     0.02600
C1723       C  0.61526948  0.69240763  0.55430933     0.09500
N1724       N  0.57325134  0.67349186  0.53643729     0.65800
H1725       H  0.56682526  0.68200843  0.49303384     0.18700
N1726       N  0.62753734  0.73014666  0.48117891     0.76300
H1727       H  0.63559293  0.71885723  0.52366123     0.10300
C1728       C  0.62218830  0.67057281  0.56090222     0.04000
C1729       C  0.62879657  0.66665366  0.58329219    -0.04800
C1730       C  0.62959058  0.68432047  0.59910556    -0.23200
C1731       C  0.62294586  0.70623796  0.59238114     0.13200
C1732       C  0.61582520  0.71008210  0.57009439    -0.12300
N1733       N  0.62376660  0.65255908  0.54478295     0.64900
H1734       H  0.63432252  0.64986465  0.58809914     0.12700
N1735       N  0.62242029  0.72450371  0.60818345     0.61500
H1736       H  0.61042156  0.72686839  0.56514012     0.08900
O1737       O  0.64855600  0.72708611  0.47911423    -0.40000
O1738       O  0.61881836  0.74826162  0.47404900    -0.39100
O1739       O  0.56291481  0.68268179  0.55268399    -0.39100
O1740       O  0.56817570  0.65357835  0.53072153    -0.36800
O1741       O  0.63685566  0.74015747  0.60678318    -0.37700
O1742       O  0.60569046  0.72670174  0.62125348    -0.33900
O1743       O  0.63555917  0.65508920  0.52715551    -0.35300
O1744       O  0.61623413  0.63319114  0.54965549    -0.39600
C1745       C  0.64394638  0.71475946  0.37716893    -0.13300
C1746       C  0.65484016  0.69367053  0.37718524     0.17100
C1747       C  0.64556346  0.67577962  0.39007753     0.03400
C1748       C  0.62608569  0.67951395  0.40306411    -0.11800
C1749       C  0.61590893  0.70089691  0.40394187    -0.02900
C1750       C  0.62465592  0.71850187  0.39048227     0.02600
C1751       C  0.67673273  0.69106802  0.36509524     0.09500
N1752       N  0.65663961  0.65429305  0.39156891     0.65800
H1753       H  0.61962492  0.66599735  0.41363527     0.18700
N1754       N  0.61517583  0.74067178  0.39151436     0.76300
H1755       H  0.65098543  0.72861934  0.36744623     0.10300
C1756       C  0.67978123  0.67484394  0.34790956     0.04000
C1757       C  0.70152730  0.67079972  0.33928483    -0.04800
C1758       C  0.72045473  0.68302757  0.34704731    -0.23200
C1759       C  0.71704635  0.69997428  0.36360441     0.13200
C1760       C  0.69536238  0.70378939  0.37241246    -0.12300
N1761       N  0.66093818  0.66258707  0.33883678     0.64900
H1762       H  0.70352971  0.65812254  0.32634931     0.12700
N1763       N  0.73547050  0.71286172  0.37245454     0.61500
H1764       H  0.69321494  0.71615709  0.38563941     0.08900
O1765       O  0.60357248  0.74801935  0.37518915    -0.40000
O1766       O  0.62102114  0.75395102  0.40714847    -0.39100
O1767       O  0.67671744  0.65314908  0.39871285    -0.39100
O1768       O  0.64538586  0.63633197  0.38907030    -0.36800
O1769       O  0.73852627  0.73289273  0.36577501    -0.37700
O1770       O  0.74628621  0.70561900  0.38936690    -0.33900
O1771       O  0.64387966  0.67314176  0.33156739    -0.35300
O1772       O  0.66239894  0.64155911  0.33556587    -0.39600
C1773       C  0.49542048  0.70777698  0.43215153    -0.13300
C1774       C  0.48914336  0.72849284  0.42243013     0.17100
C1775       C  0.50623117  0.74311710  0.41431570     0.03400
C1776       C  0.52909485  0.73716545  0.41669055    -0.11800
C1777       C  0.53529534  0.71677336  0.42705825    -0.02900
C1778       C  0.51821990  0.70180659  0.43442014     0.02600
C1779       C  0.46497061  0.73550066  0.42331910     0.09500
N1780       N  0.50059889  0.76418065  0.40389647     0.65800
H1781       H  0.54207523  0.74882583  0.41105256     0.18700
N1782       N  0.52384996  0.68058554  0.44452111     0.76300
H1783       H  0.48256996  0.69648000  0.43872323     0.10300
C1784       C  0.44760328  0.72196044  0.41412589     0.04000
C1785       C  0.42487294  0.72785290  0.41751181    -0.04800
C1786       C  0.41895405  0.74715692  0.42999063    -0.23200
C1787       C  0.43636048  0.76089604  0.43890469     0.13200
C1788       C  0.45907173  0.75490639  0.43563003    -0.12300
N1789       N  0.45279456  0.70211884  0.40136777     0.64900
H1790       H  0.41178264  0.71705487  0.41071555     0.12700
N1791       N  0.43127944  0.78113225  0.45109665     0.61500
H1792       H  0.47215550  0.76525374  0.44309313     0.08900
O1793       O  0.52795972  0.66377168  0.43207338    -0.40000
O1794       O  0.52125257  0.67776655  0.46552271    -0.39100
O1795       O  0.50679442  0.78249320  0.41290744    -0.39100
O1796       O  0.49219053  0.76439483  0.38428596    -0.36800
O1797       O  0.42471648  0.79844906  0.44050756    -0.37700
O1798       O  0.43674166  0.78280090  0.47166319    -0.33900
O1799       O  0.44665408  0.68297483  0.40853344    -0.35300
O1800       O  0.46064092  0.70399005  0.38160411    -0.39600
C1801       C  0.10529629  0.77410640  0.43570388    -0.13300
C1802       C  0.12181981  0.77581917  0.45265339     0.17100
C1803       C  0.14434841  0.78035498  0.44649889     0.03400
C1804       C  0.14993961  0.78370777  0.42374215    -0.11800
C1805       C  0.13337523  0.78262058  0.40667063    -0.02900
C1806       C  0.11085618  0.77731942  0.41287005     0.02600
C1807       C  0.11538843  0.77180855  0.47657166     0.09500
N1808       N  0.16163561  0.78234034  0.46327536     0.65800
H1809       H  0.16727844  0.78756948  0.41953825     0.18700
N1810       N  0.09333394  0.77535829  0.39633921     0.76300
H1811       H  0.08807134  0.77008864  0.44020133     0.10300
C1812       C  0.09835337  0.78471924  0.48709457     0.04000
C1813       C  0.09131987  0.77928025  0.50905698    -0.04800
C1814       C  0.10134129  0.76135152  0.52094140    -0.23200
C1815       C  0.11847578  0.74848815  0.51051972     0.13200
C1816       C  0.12542302  0.75387771  0.48847769    -0.12300
N1817       N  0.08858522  0.80383916  0.47594195     0.64900
H1818       H  0.07843810  0.78937320  0.51705884     0.12700
N1819       N  0.12812266  0.72924752  0.52163848     0.61500
H1820       H  0.13801919  0.74356254  0.48033472     0.08900
O1821       O  0.07988420  0.79159682  0.39316613    -0.40000
O1822       O  0.08914463  0.75636318  0.38759348    -0.39100
O1823       O  0.17736566  0.76796861  0.46411271    -0.39100
O1824       O  0.16253775  0.79971064  0.47560926    -0.36800
O1825       O  0.11548286  0.71358251  0.52877888    -0.37700
O1826       O  0.14930084  0.72671109  0.52214752    -0.33900
O1827       O  0.06751726  0.80469604  0.47268561    -0.35300
O1828       O  0.10067007  0.82085207  0.47143807    -0.39600
C1829       C  0.15423396  0.75031457  0.62095927    -0.13300
C1830       C  0.15107642  0.76806390  0.63638123     0.17100
C1831       C  0.13071322  0.78050165  0.63578104     0.03400
C1832       C  0.11420922  0.77535873  0.61950692    -0.11800
C1833       C  0.11775115  0.75798295  0.60373408    -0.02900
C1834       C  0.13774886  0.74512504  0.60482606     0.02600
C1835       C  0.17087666  0.77547070  0.64990844     0.09500
N1836       N  0.12684567  0.79877529  0.65113408     0.65800
H1837       H  0.09904893  0.78537324  0.61868225     0.18700
N1838       N  0.14174325  0.72699896  0.58933399     0.76300
H1839       H  0.16986368  0.74104379  0.62085208     0.10300
C1840       C  0.18337141  0.76010076  0.66323329     0.04000
C1841       C  0.20506283  0.76596809  0.67089616    -0.04800
C1842       C  0.21449760  0.78707866  0.66550932    -0.23200
C1843       C  0.20127459  0.80299720  0.65358289     0.13200
C1844       C  0.17977198  0.79704786  0.64576022    -0.12300
N1845       N  0.17455362  0.73817603  0.66840408     0.64900
H1846       H  0.21480112  0.75375290  0.68018559     0.12700
N1847       N  0.20967748  0.82512750  0.64867142     0.61500
H1848       H  0.17060947  0.80884531  0.63543368     0.08900
O1849       O  0.12926595  0.70969286  0.58979596    -0.40000
O1850       O  0.15906679  0.72722074  0.57686429    -0.39100
O1851       O  0.12374219  0.81851024  0.64363610    -0.39100
O1852       O  0.12378281  0.79475587  0.67187543    -0.36800
O1853       O  0.21371918  0.83070226  0.62846636    -0.37700
O1854       O  0.20991788  0.83998482  0.66397153    -0.33900
O1855       O  0.18530552  0.72070075  0.66260117    -0.35300
O1856       O  0.15720814  0.73629843  0.68070354    -0.39600
C1857       C  0.82168878  0.69229054  0.62652301    -0.13300
C1858       C  0.80109973  0.70121717  0.61871948     0.17100
C1859       C  0.80072938  0.71335790  0.59821095     0.03400
C1860       C  0.82050261  0.71544679  0.58545332    -0.11800
C1861       C  0.84065493  0.70480917  0.59219219    -0.02900
C1862       C  0.84135483  0.69373636  0.61334458     0.02600
C1863       C  0.77997122  0.69690344  0.63156997     0.09500
N1864       N  0.78005897  0.72210927  0.58920058     0.65800
H1865       H  0.81975438  0.72434204  0.56946789     0.18700
N1866       N  0.86133542  0.68250885  0.62097205     0.76300
H1867       H  0.82225789  0.68329967  0.64245335     0.10300
C1868       C  0.77320341  0.67467422  0.63690753     0.04000
C1869       C  0.75284452  0.67097917  0.64834679    -0.04800
C1870       C  0.73851324  0.68903217  0.65400959    -0.23200
C1871       C  0.74554412  0.71133422  0.64918906     0.13200
C1872       C  0.76619827  0.71507899  0.63814023    -0.12300
N1873       N  0.78600793  0.65558604  0.62939860     0.64900
H1874       H  0.74759035  0.65373854  0.65154697     0.12700
N1875       N  0.73221437  0.73033435  0.65587918     0.61500
H1876       H  0.77148608  0.73223753  0.63461469     0.08900
O1877       O  0.87258752  0.69077587  0.63710402    -0.40000
O1878       O  0.86537714  0.66261426  0.61446312    -0.39100
O1879       O  0.77821462  0.74297216  0.58516380    -0.39100
O1880       O  0.76491994  0.70869235  0.58240252    -0.36800
O1881       O  0.73164563  0.73611070  0.67641444    -0.37700
O1882       O  0.72394512  0.74326127  0.64105123    -0.33900
O1883       O  0.79366808  0.64164579  0.64362273    -0.35300
O1884       O  0.78718264  0.65112604  0.60855713    -0.39600
C1885       C  0.85302399  0.66293154  0.43277189    -0.13300
C1886       C  0.84298858  0.68021532  0.44543230     0.17100
C1887       C  0.82647005  0.69405535  0.43537317     0.03400
C1888       C  0.82015426  0.69040322  0.41289787    -0.11800
C1889       C  0.82996026  0.67292317  0.40012131    -0.02900
C1890       C  0.84675156  0.65920310  0.41027685     0.02600
C1891       C  0.85079693  0.68431234  0.46877714     0.09500
N1892       N  0.81545475  0.71144924  0.44801334     0.65800
H1893       H  0.80717528  0.70099158  0.40566394     0.18700
N1894       N  0.85813294  0.64185906  0.39789638     0.76300
H1895       H  0.86609322  0.65261869  0.44023123     0.10300
C1896       C  0.84848575  0.66768312  0.48568042     0.04000
C1897       C  0.85584015  0.67220536  0.50769209    -0.04800
C1898       C  0.86569300  0.69309210  0.51305181    -0.23200
C1899       C  0.86859433  0.70948353  0.49599846     0.13200
C1900       C  0.86115242  0.70499287  0.47400992    -0.12300
N1901       N  0.83807930  0.64641741  0.48086987     0.64900
H1902       H  0.85357752  0.65956306  0.52068838     0.12700
N1903       N  0.87815602  0.73109955  0.50099604     0.61500
H1904       H  0.86326372  0.71769869  0.46106055     0.08900
O1905       O  0.85377722  0.62136690  0.40193045    -0.40000
O1906       O  0.87476002  0.64688891  0.38548215    -0.39100
O1907       O  0.81856871  0.73190902  0.44283005    -0.39100
O1908       O  0.80018545  0.70629988  0.46201904    -0.36800
O1909       O  0.89809651  0.73557348  0.49484304    -0.37700
O1910       O  0.86569181  0.74668113  0.50850575    -0.33900
O1911       O  0.84999957  0.62877190  0.47982095    -0.35300
O1912       O  0.81680609  0.64483195  0.48051507    -0.39600
C1913       C  0.95256016  0.73856654  0.58421867    -0.13300
C1914       C  0.96928794  0.72361967  0.57649868     0.17100
C1915       C  0.96280855  0.70258686  0.56736840     0.03400
C1916       C  0.93986280  0.69740374  0.56496314    -0.11800
C1917       C  0.92312408  0.71298478  0.57129330    -0.02900
C1918       C  0.92959167  0.73351762  0.58149306     0.02600
C1919       C  0.99327917  0.73082432  0.57669072     0.09500
N1920       N  0.97928005  0.68694584  0.55912716     0.65800
H1921       H  0.93508937  0.68152054  0.55726713     0.18700
N1922       N  0.91314889  0.75013100  0.58754186     0.76300
H1923       H  0.95736786  0.75464055  0.59146352     0.10300
C1924       C  0.00017800  0.75042380  0.56498234     0.04000
C1925       C  0.02304915  0.75625153  0.56424262    -0.04800
C1926       C  0.03944155  0.74257587  0.57458156    -0.23200
C1927       C  0.03251510  0.72334630  0.58691170     0.13200
C1928       C  0.00950202  0.71775184  0.58806225    -0.12300
N1929       N  0.98431071  0.76385652  0.55263984     0.64900
H1930       H  0.02812497  0.77109244  0.55483325     0.12700
N1931       N  0.04869808  0.70858046  0.59711007     0.61500
H1932       H  0.00435799  0.70279688  0.59722485     0.08900
O1933       O  0.90479063  0.76270924  0.57246609    -0.40000
O1934       O  0.90949098  0.75442912  0.60812039    -0.39100
O1935       O  0.98222119  0.66837991  0.56922209    -0.39100
O1936       O  0.98837099  0.69017111  0.54007996    -0.36800
O1937       O  0.05999546  0.69520572  0.58493147    -0.37700
O1938       O  0.04965915  0.70688714  0.61836535    -0.33900
O1939       O  0.98035105  0.78389522  0.55874926    -0.35300
O1940       O  0.97664663  0.75680445  0.53401745    -0.39600
C1941       C  0.45423416  0.09999208  0.81544184    -0.13300
C1942       C  0.44739069  0.11857509  0.80237207     0.17100
C1943       C  0.46288196  0.12848326  0.78709337     0.03400
C1944       C  0.48475983  0.11955293  0.78517755    -0.11800
C1945       C  0.49179285  0.10132697  0.79870267    -0.02900
C1946       C  0.47626191  0.09147023  0.81391991     0.02600
C1947       C  0.42412411  0.12744652  0.80547147     0.09500
N1948       N  0.45705497  0.14814230  0.77417161     0.65800
H1949       H  0.49650527  0.12721805  0.77343838     0.18700
N1950       N  0.48292122  0.07361173  0.82880200     0.76300
H1951       H  0.44253380  0.09239567  0.82727810     0.10300
C1952       C  0.40834338  0.12826003  0.78755094     0.04000
C1953       C  0.38652177  0.13670277  0.79154475    -0.04800
C1954       C  0.37985490  0.14359395  0.81327918    -0.23200
C1955       C  0.39579051  0.14314973  0.83100123     0.13200
C1956       C  0.41765771  0.13506058  0.82699347    -0.12300
N1957       N  0.41376654  0.11943987  0.76563289     0.64900
H1958       H  0.37435547  0.13679127  0.77785542     0.12700
N1959       N  0.39031554  0.15180824  0.85289254     0.61500
H1960       H  0.42977724  0.13492290  0.84073318     0.08900
O1961       O  0.47312211  0.05468784  0.82775364    -0.40000
O1962       O  0.49607417  0.07775875  0.84508336    -0.39100
O1963       O  0.45035541  0.16577744  0.78411766    -0.39100
O1964       O  0.46170224  0.14901003  0.75334448    -0.36800
O1965       O  0.38887738  0.13854493  0.86955437    -0.37700
O1966       O  0.39013766  0.17288507  0.85614772    -0.33900
O1967       O  0.42095915  0.09945423  0.76369028    -0.35300
O1968       O  0.40867529  0.13048052  0.74808116    -0.39600
C1969       C  0.63229643  0.18457238  0.78753403    -0.13300
C1970       C  0.61505816  0.17698878  0.80199543     0.17100
C1971       C  0.60803731  0.19073008  0.82005591     0.03400
C1972       C  0.61766769  0.21203460  0.82299765    -0.11800
C1973       C  0.63430758  0.22026374  0.80807433    -0.02900
C1974       C  0.64212786  0.20598417  0.79056385     0.02600
C1975       C  0.60335227  0.15536316  0.79760277     0.09500
N1976       N  0.59017539  0.18377199  0.83482688     0.65800
H1977       H  0.61155035  0.22239133  0.83673488     0.18700
N1978       N  0.65953354  0.21310209  0.77538260     0.76300
H1979       H  0.63788218  0.17399557  0.77374868     0.10300
C1980       C  0.58871564  0.15319758  0.77896902     0.04000
C1981       C  0.57413247  0.13464845  0.77761030    -0.04800
C1982       C  0.57414711  0.11798042  0.79448614    -0.23200
C1983       C  0.58998880  0.11922113  0.81221729     0.13200
C1984       C  0.60438524  0.13798087  0.81376248    -0.12300
N1985       N  0.58722486  0.17059586  0.76226746     0.64900
H1986       H  0.56207455  0.13374897  0.76391878     0.12700
N1987       N  0.59049238  0.10244009  0.82960301     0.61500
H1988       H  0.61559838  0.13952125  0.82808949     0.08900
O1989       O  0.65440498  0.22029392  0.75595488    -0.40000
O1990       O  0.67993954  0.20899045  0.78005325    -0.39100
O1991       O  0.59448139  0.17880068  0.85513166    -0.39100
O1992       O  0.56988355  0.18541227  0.82844315    -0.36800
O1993       O  0.60413526  0.08612440  0.82812503    -0.37700
O1994       O  0.57991230  0.10571077  0.84784458    -0.33900
O1995       O  0.59705987  0.16815868  0.74348650    -0.35300
O1996       O  0.57378858  0.18690127  0.76511235    -0.39600
C1997       C  0.60568419  0.82759653  0.71675276    -0.13300
C1998       C  0.60144974  0.80616373  0.72609418     0.17100
C1999       C  0.58382212  0.80357429  0.74192517     0.03400
C2000       C  0.57020043  0.82202336  0.74741095    -0.11800
C2001       C  0.57330704  0.84306504  0.73686677    -0.02900
C2002       C  0.59169068  0.84601690  0.72191427     0.02600
C2003       C  0.61489163  0.78638474  0.71868938     0.09500
N2004       N  0.57836762  0.78189852  0.75117285     0.65800
H2005       H  0.55621080  0.81954659  0.75895896     0.18700
N2006       N  0.59541716  0.86706778  0.71063977     0.76300
H2007       H  0.61936654  0.82981609  0.70481226     0.10300
C2008       C  0.61562438  0.77988346  0.69575327     0.04000
C2009       C  0.62701187  0.76012325  0.68952961    -0.04800
C2010       C  0.63706923  0.74622541  0.70592716    -0.23200
C2011       C  0.63716206  0.75320281  0.72871817     0.13200
C2012       C  0.62620853  0.77324111  0.73489460    -0.12300
N2013       N  0.60321846  0.79203597  0.67891049     0.64900
H2014       H  0.62648366  0.75475483  0.67204242     0.12700
N2015       N  0.64854101  0.74026546  0.74567902     0.61500
H2016       H  0.62621657  0.77839067  0.75244479     0.08900
O2017       O  0.58586539  0.87087624  0.69194210    -0.40000
O2018       O  0.61113204  0.87991440  0.71721527    -0.39100
O2019       O  0.57979458  0.77861892  0.77221578    -0.39100
O2020       O  0.56934597  0.76705995  0.73878177    -0.36800
O2021       O  0.66987150  0.74003646  0.74621635    -0.37700
O2022       O  0.63749059  0.73188081  0.76191274    -0.33900
O2023       O  0.61348172  0.80076422  0.66234580    -0.35300
O2024       O  0.58189179  0.79119897  0.67883036    -0.39600
C2025       C  0.40891441  0.85873166  0.70934567    -0.13300
C2026       C  0.42488060  0.84169745  0.71364555     0.17100
C2027       C  0.41797325  0.81888062  0.71300700     0.03400
C2028       C  0.39562003  0.81346916  0.70739627    -0.11800
C2029       C  0.37979962  0.83048741  0.70256915    -0.02900
C2030       C  0.38656460  0.85332563  0.70376618     0.02600
C2031       C  0.44843880  0.84824302  0.71933002     0.09500
N2032       N  0.43352421  0.80096970  0.71759624     0.65800
H2033       H  0.39064930  0.79594156  0.70680401     0.18700
N2034       N  0.37122781  0.87121834  0.69845600     0.76300
H2035       H  0.41382028  0.87624806  0.71023053     0.10300
C2036       C  0.46083458  0.86314421  0.70533561     0.04000
C2037       C  0.48231146  0.87049663  0.71203545    -0.04800
C2038       C  0.49202031  0.86255808  0.73212202    -0.23200
C2039       C  0.47992410  0.84741632  0.74592066     0.13200
C2040       C  0.45812249  0.84062788  0.73966629    -0.12300
N2041       N  0.45222297  0.87023066  0.68385240     0.64900
H2042       H  0.49174095  0.88170851  0.70121025     0.12700
N2043       N  0.48942089  0.83919504  0.76656500     0.61500
H2044       H  0.44871472  0.82973206  0.75077756     0.08900
O2045       O  0.36880954  0.87742541  0.67817519    -0.40000
O2046       O  0.36269073  0.88286097  0.71415382    -0.39100
O2047       O  0.43093774  0.78889041  0.73501456    -0.39100
O2048       O  0.44761436  0.79511495  0.70268715    -0.36800
O2049       O  0.48645458  0.85003200  0.78469317    -0.37700
O2050       O  0.49848525  0.81990708  0.76715480    -0.33900
O2051       O  0.45011547  0.89101081  0.67952132    -0.35300
O2052       O  0.44952247  0.85591993  0.66826553    -0.39600
C2053       C  0.56094827  0.95197909  0.77868373    -0.13300
C2054       C  0.54970380  0.96854321  0.76593986     0.17100
C2055       C  0.53783517  0.96212238  0.74630539     0.03400
C2056       C  0.53670168  0.93936135  0.74018669    -0.11800
C2057       C  0.54687046  0.92257742  0.75355194    -0.02900
C2058       C  0.55955692  0.92908016  0.77270402     0.02600
C2059       C  0.55004686  0.99244365  0.77336232     0.09500
N2060       N  0.52578611  0.97839309  0.73308786     0.65800
H2061       H  0.52713342  0.93469019  0.72532198     0.18700
N2062       N  0.57006116  0.91262218  0.78693170     0.76300
H2063       H  0.57034376  0.95678622  0.79360238     0.10300
C2064       C  0.54065929  0.99899184  0.79428161     0.04000
C2065       C  0.53894376  0.02194723  0.79970651    -0.04800
C2066       C  0.54655839  0.03857820  0.78458996    -0.23200
C2067       C  0.55688886  0.03200148  0.76413448     0.13200
C2068       C  0.55864353  0.00904781  0.75873221    -0.12300
N2069       N  0.53171732  0.98259378  0.80963786     0.58900
H2070       H  0.53107112  0.02684617  0.81548609     0.12700
N2071       N  0.56425891  0.04845298  0.74801807     0.61500
H2072       H  0.56602243  0.00418701  0.74271284     0.08900
O2073       O  0.55856388  0.90274041  0.80196520    -0.40000
O2074       O  0.59131615  0.91076827  0.78700859    -0.39100
O2075       O  0.53188997  0.98244412  0.71303390    -0.39100
O2076       O  0.50735190  0.98633349  0.74031241    -0.36800
O2077       O  0.55019657  0.05698473  0.73443076    -0.37700
O2078       O  0.58512210  0.05184688  0.74509282    -0.33900
O2079       O  0.54193867  0.97850379  0.82791823    -0.35300
O2080       O  0.51214284  0.97469728  0.80651292    -0.39600
loop_ 
_geom_bond_atom_site_label_1 
_geom_bond_atom_site_label_2 
_geom_bond_distance 
_geom_bond_site_symmetry_2 
_ccdc_geom_bond_type 
C1            C2   1.406       .  A
C1            C6   1.408       .  A
C1         C2057   1.483       .  S
C2            C3   1.396       .  A
C2            H7   1.085       .  S
C3            C4   1.394       .  A
C3         C2038   1.472       .  S
C4            C5   1.403       .  A
C4            H8   1.084       .  S
C5            C6   1.407       .  A
C5         C2001   1.481       .  S
C6            H9   1.081       .  S
C10          C11   1.405       .  A
C10          C15   1.404       .  A
C10        C2066   1.477       .  S
C11          C12   1.403       .  A
C11          H16   1.083       .  S
C12          C13   1.402       .  A
C12        C1945   1.485       .  S
C13          C14   1.402       .  A
C13          H17   1.085       .  S
C14          C15   1.400       .  A
C14        C1982   1.474       .  S
C15          H18   1.083       .  S
C19          C20   1.408       .  A
C19          C24   1.403       .  A
C19        C1917   1.479       .  S
C20          C21   1.407       .  A
C20          H25   1.081       .  S
C21          C22   1.404       .  A
C21        C1861   1.485       .  S
C22          C23   1.396       .  A
C22          H26   1.085       .  S
C23          C24   1.397       .  A
C23        C1898   1.473       .  S
C24          H27   1.084       .  S
C28          C29   1.405       .  A
C28          C33   1.403       .  A
C28        C1926   1.480       .  S
C29          C30   1.404       .  A
C29          H34   1.084       .  S
C30          C31   1.406       .  A
C30        C1833   1.479       .  S
C31          C32   1.401       .  A
C31          H35   1.082       .  S
C32          C33   1.397       .  A
C32        C1814   1.478       .  S
C33          H36   1.086       .  S
C37          C38   1.408       .  A
C37          C42   1.404       .  A
C37        C1777   1.483       .  S
C38          C39   1.407       .  A
C38          H43   1.083       .  S
C39          C40   1.403       .  A
C39        C1749   1.481       .  S
C40          C41   1.402       .  A
C40          H44   1.083       .  S
C41          C42   1.402       .  A
C41        C1721   1.486       .  S
C42          H45   1.084       .  S
C46          C47   1.406       .  A
C46          C51   1.408       .  A
C46        C1786   1.489       .  S
C47          C48   1.404       .  A
C47          H52   1.084       .  S
C48          C49   1.406       .  A
C48        C1693   1.491       .  S
C49          C50   1.407       .  A
C49          H53   1.082       .  S
C50          C51   1.406       .  A
C50        C1665   1.488       .  S
C51          H54   1.085       .  S
C55          C56   1.405       .  A
C55          C60   1.408       .  A
C55        C1637   1.484       .  S
C56          C57   1.400       .  A
C56          H61   1.082       .  S
C57          C58   1.396       .  A
C57        C1609   1.477       .  S
C58          C59   1.401       .  A
C58          H62   1.086       .  S
C59          C60   1.406       .  A
C59        C1581   1.479       .  S
C60          H63   1.084       .  S
C64          C65   1.402       .  A
C64          C69   1.406       .  A
C64        C1646   1.474       .  S
C65          C66   1.398       .  A
C65          H70   1.084       .  S
C66          C67   1.400       .  A
C66        C1553   1.469       .  S
C67          C68   1.399       .  A
C67          H71   1.083       .  S
C68          C69   1.403       .  A
C68        C1525   1.479       .  S
C69          H72   1.085       .  S
Zn73         O77   1.951       .  S
Zn73         O78   1.994       .  S
Zn73         O82   2.019       .  S
Zn73         O89   2.002       .  S
Zn74         O77   1.985       .  S
Zn74         O79   2.044       .  S
Zn74         O81   2.054       .  S
Zn74         O85   2.041       .  S
Zn75         O77   1.942       .  S
Zn75         O80   1.991       .  S
Zn75         O83   1.984       .  S
Zn75         O86   2.013       .  S
Zn76         O77   1.945       .  S
Zn76         O84   2.016       .  S
Zn76         O87   1.986       .  S
Zn76         O88   2.017       .  S
O78          C90   1.272       .  A
O79          C91   1.276       .  A
O80          C92   1.271       .  A
O81          C90   1.278       .  A
O82          C92   1.273       .  A
O83          C91   1.272       .  A
O84          C93   1.273       .  A
O85          C94   1.276       .  A
O86          C93   1.271       .  A
O87          C94   1.273       .  A
O88          C95   1.273       .  A
O89          C95   1.271       .  A
C90        C1469   1.479       .  S
C91        C1497   1.480       .  S
C92        C1618   1.483       .  S
C93        C1413   1.490       .  S
C94        C1973   1.486       .  S
C95        C1441   1.487       .  S
Zn96        O100   1.954       .  S
Zn96        O101   2.017       .  S
Zn96        O105   1.997       .  S
Zn96        O112   2.031       .  S
Zn97        O100   1.942       .  S
Zn97        O102   1.986       .  S
Zn97        O104   1.998       .  S
Zn97        O108   2.008       .  S
Zn98        O100   1.992       .  S
Zn98        O103   2.040       .  S
Zn98        O106   2.060       .  S
Zn98        O109   2.062       .  S
Zn99        O100   1.944       .  S
Zn99        O107   1.979       .  S
Zn99        O110   2.009       .  S
Zn99        O111   2.020       .  S
O101        C113   1.272       .  A
O102        C114   1.272       .  A
O103        C115   1.277       .  A
O104        C113   1.271       .  A
O105        C115   1.273       .  A
O106        C114   1.277       .  A
O107        C116   1.270       .  A
O108        C117   1.271       .  A
O109        C116   1.279       .  A
O110        C117   1.272       .  A
O111        C118   1.273       .  A
O112        C118   1.275       .  A
C113       C1329   1.488       .  S
C114       C1385   1.493       .  S
C115       C1842   1.480       .  S
C116       C1357   1.491       .  S
C117       C2029   1.477       .  S
C118       C1702   1.493       .  S
C119        C120   1.405       .  A
C119        C124   1.412       .  A
C119       C1301   1.494       .  S
C120        C121   1.397       .  A
C120        H125   1.084       .  S
C121        C122   1.399       .  A
C121       C1273   1.481   1_455  S
C122        C123   1.406       .  A
C122        H126   1.082       .  S
C123        C124   1.412       .  A
C123       C1254   1.488       .  S
C124        H127   1.083       .  S
C128        C129   1.407       .  A
C128        C133   1.410       .  A
C128       C1310   1.490       .  S
C129        C130   1.408       .  A
C129        H134   1.085       .  S
C130        C131   1.405       .  A
C130       C1189   1.487       .  S
C131        C132   1.396       .  A
C131        H135   1.082       .  S
C132        C133   1.403       .  A
C132       C1217   1.478   1_455  S
C133        H136   1.083       .  S
Zn137       O141   1.957       .  S
Zn137       O142   2.009       .  S
Zn137       O146   2.031       .  S
Zn137       O153   2.025       .  S
Zn138       O141   1.950       .  S
Zn138       O143   2.011       .  S
Zn138       O145   1.994       .  S
Zn138       O149   1.992       .  S
Zn139       O141   1.955       .  S
Zn139       O144   2.016       .  S
Zn139       O147   2.024       .  S
Zn139       O150   2.007       .  S
Zn140       O141   1.965       .  S
Zn140       O148   2.010       .  S
Zn140       O151   2.030       .  S
Zn140       O152   2.024       .  S
O142        C154   1.273       .  A
O143        C155   1.271       .  A
O144        C156   1.275       .  A
O145        C154   1.270       .  A
O146        C156   1.275       .  A
O147        C155   1.274       .  A
O148        C157   1.275       .  A
O149        C158   1.271       .  A
O150        C157   1.273       .  A
O151        C158   1.274       .  A
O152        C159   1.274       .  A
O153        C159   1.275       .  A
C154       C1889   1.483       .  S
C155       C1133   1.492       .  S
C156       C1758   1.493       .  S
C157       C1562   1.482       .  S
C158       C1282   1.487       .  S
C159       C1161   1.484       .  S
C160        C161   1.405       .  A
C160        C165   1.404       .  A
C160       C1114   1.481       .  S
C161        C162   1.403       .  A
C161        H166   1.083       .  S
C162        C163   1.400       .  A
C162       C1086   1.482       .  S
C163        C164   1.404       .  A
C163        H167   1.084       .  S
C164        C165   1.404       .  A
C164       C1506   1.482       .  S
C165        H168   1.083       .  S
C169        C170   1.406       .  A
C169        C174   1.404       .  A
C169       C1105   1.481       .  S
C170        C171   1.401       .  A
C170        H175   1.084       .  S
C171        C172   1.402       .  A
C171       C1058   1.473       .  S
C172        C173   1.401       .  A
C172        H176   1.085       .  S
C173        C174   1.399       .  A
C173       C1021   1.480       .  S
C174        H177   1.082       .  S
Zn178       O182   1.944       .  S
Zn178       O183   2.014       .  S
Zn178       O187   1.999       .  S
Zn178       O194   1.986       .  S
Zn179       O182   1.956       .  S
Zn179       O184   2.023       .  S
Zn179       O186   2.027       .  S
Zn179       O190   2.004       .  S
Zn180       O182   1.953       .  S
Zn180       O185   2.025       .  S
Zn180       O188   2.003       .  S
Zn180       O191   1.993       .  S
Zn181       O182   1.987       .  S
Zn181       O189   2.052       .  S
Zn181       O192   2.051       .  S
Zn181       O193   2.058       .  S
O183        C195   1.273       .  A
O184        C196   1.274       .  A
O185        C197   1.273       .  A
O186        C195   1.273       .  A
O187        C197   1.271       .  A
O188        C196   1.271       .  A
O189        C198   1.277       .  A
O190        C199   1.273       .  A
O191        C198   1.272       .  A
O192        C199   1.278       .  A
O193        C200   1.278       .  A
O194        C200   1.272       .  A
C195       C1226   1.493       .  S
C196       C1534   1.486       .  S
C197       C1077   1.490       .  S
C198        C946   1.482       .  S
C199       C1002   1.489       .  S
C200        C974   1.491       .  S
C201        C202   1.402       .  A
C201        C206   1.409       .  A
C201        C918   1.478       .  S
C202        C203   1.395       .  A
C202        H207   1.084       .  S
C203        C204   1.396       .  A
C203        C881   1.477       .  S
C204        C205   1.405       .  A
C204        H208   1.085       .  S
C205        C206   1.410       .  A
C205        C862   1.489       .  S
C206        H209   1.081       .  S
C210        C211   1.405       .  A
C210        C215   1.405       .  A
C210        C909   1.486       .  S
C211        C212   1.404       .  A
C211        H216   1.082       .  S
C212        C213   1.405       .  A
C212        C937   1.481       .  S
C213        C214   1.404       .  A
C213        H217   1.084       .  S
C214        C215   1.405       .  A
C214       C1422   1.492       .  S
C215        H218   1.083       .  S
C219        C220   1.407       .  A
C219        C224   1.406       .  A
C219        C825   1.484       .  S
C220        C221   1.405       .  A
C220        H225   1.079       .  S
C221        C222   1.404       .  A
C221        C806   1.487       .  S
C222        C223   1.403       .  A
C222        H226   1.086       .  S
C223        C224   1.402       .  A
C223       C1394   1.479       .  S
C224        H227   1.085       .  S
C228        C229   1.405       .  A
C228        C233   1.408       .  A
C228        C834   1.483       .  S
C229        C230   1.400       .  A
C229        H234   1.081       .  S
C230        C231   1.400       .  A
C230        C769   1.479       .  S
C231        C232   1.401       .  A
C231        H235   1.085       .  S
C232        C233   1.407       .  A
C232        C741   1.480       .  S
C233        H236   1.085       .  S
Zn237       O241   1.955       .  S
Zn237       O242   2.005       .  S
Zn237       O246   2.028       .  S
Zn237       O253   2.014       .  S
Zn238       O241   1.956       .  S
Zn238       O243   2.021       .  S
Zn238       O245   2.005       .  S
Zn238       O249   2.014       .  S
Zn239       O241   1.947       .  S
Zn239       O244   2.010       .  S
Zn239       O247   1.994       .  S
Zn239       O250   1.995       .  S
Zn240       O241   1.963       .  S
Zn240       O248   2.036       .  S
Zn240       O251   2.028       .  S
Zn240       O252   2.028       .  S
O242        C254   1.272       .  A
O243        C255   1.274       .  A
O244        C256   1.271       .  A
O245        C254   1.272       .  A
O246        C256   1.274       .  A
O247        C255   1.271       .  A
O248        C257   1.276       .  A
O249        C258   1.273       .  A
O250        C257   1.272       .  A
O251        C258   1.275       .  A
O252        C259   1.276       .  A
O253        C259   1.274       .  A
C254        C890   1.474       .  S
C255        C694   1.484       .  S
C256       C1954   1.480       .  S
C257        C722   1.480       .  S
C258       C1049   1.484       .  S
C259        C797   1.493       .  S
C260        C261   1.404       .  A
C260        C265   1.408       .  A
C260        C657   1.482       .  S
C261        C262   1.398       .  A
C261        H266   1.085       .  S
C262        C263   1.400       .  A
C262        C601   1.478   1_545  S
C263        C264   1.404       .  A
C263        H267   1.084       .  S
C264        C265   1.408       .  A
C264        C629   1.487       .  S
C265        H268   1.083       .  S
C269        C270   1.405       .  A
C269        C274   1.407       .  A
C269        C666   1.483       .  S
C270        C271   1.401       .  A
C270        H275   1.085       .  S
C271        C272   1.400       .  A
C271       C1338   1.488       .  S
C272        C273   1.404       .  A
C272        H276   1.083       .  S
C273        C274   1.406       .  A
C273        C713   1.483       .  S
C274        H277   1.081       .  S
Zn278       O282   1.962       .  S
Zn278       O283   2.024       .  S
Zn278       O287   2.020       .  S
Zn278       O294   2.022       .  S
Zn279       O282   1.957       .  S
Zn279       O284   2.014       .  S
Zn279       O286   2.013       .  S
Zn279       O290   2.007       .  S
Zn280       O282   1.952       .  S
Zn280       O285   2.005       .  S
Zn280       O288   1.998       .  S
Zn280       O291   2.003       .  S
Zn281       O282   1.960       .  S
Zn281       O289   2.033       .  S
Zn281       O292   2.030       .  S
Zn281       O293   2.014       .  S
O283        C295   1.275       .  A
O284        C296   1.272       .  A
O285        C297   1.271       .  A
O286        C295   1.273       .  A
O287        C297   1.274       .  A
O288        C296   1.272       .  A
O289        C298   1.274       .  A
O290        C299   1.273       .  A
O291        C298   1.272       .  A
O292        C299   1.276       .  A
O293        C300   1.274       .  A
O294        C300   1.274       .  A
C295        C853   1.486       .  S
C296       C1030   1.486       .  S
C297        C778   1.489       .  S
C298        C573   1.486       .  S
C299       C1198   1.483       .  S
C300        C638   1.479       .  S
C301        C302   1.405       .  A
C301        C306   1.410       .  A
C301        C545   1.487       .  S
C302        C303   1.399       .  A
C302        H307   1.084       .  S
C303        C304   1.400       .  A
C303        C517   1.478       .  S
C304        C305   1.405       .  A
C304        H308   1.082       .  S
C305        C306   1.409       .  A
C305       C1170   1.489       .  S
C306        H309   1.084       .  S
C310        C311   1.409       .  A
C310        C315   1.406       .  A
C310        C554   1.486       .  S
C311        C312   1.407       .  A
C311        H316   1.082       .  S
C312        C313   1.403       .  A
C312        C965   1.485       .  S
C313        C314   1.400       .  A
C313        H317   1.084       .  S
C314        C315   1.402       .  A
C314        C582   1.486       .  S
C315        H318   1.085       .  S
Zn319       O323   1.950       .  S
Zn319       O324   1.992       .  S
Zn319       O328   2.008       .  S
Zn319       O335   2.013       .  S
Zn320       O323   1.987       .  S
Zn320       O325   2.063       .  S
Zn320       O327   2.074       .  S
Zn320       O331   2.069       .  S
Zn321       O323   1.957       .  S
Zn321       O326   2.021       .  S
Zn321       O329   1.994       .  S
Zn321       O332   2.025       .  S
Zn322       O323   1.945       .  S
Zn322       O330   1.999       .  S
Zn322       O333   1.984       .  S
Zn322       O334   2.007       .  S
O324        C336   1.272       .  A
O325        C337   1.280       .  A
O326        C338   1.273       .  A
O327        C336   1.280       .  A
O328        C338   1.273       .  A
O329        C337   1.272       .  A
O330        C339   1.271       .  A
O331        C340   1.280       .  A
O332        C339   1.273       .  A
O333        C340   1.270       .  A
O334        C341   1.272       .  A
O335        C341   1.271       .  A
C336       C1674   1.487       .  S
C337       C1245   1.485       .  S
C338       C1805   1.488       .  S
C339        C526   1.488       .  S
C340        C750   1.494       .  S
C341        C610   1.487       .  S
C342        C343   1.406       .  A
C342        C347   1.404       .  A
C342        C489   1.482       .  S
C343        C344   1.402       .  A
C343        H348   1.085       .  S
C344        C345   1.401       .  A
C344       C1450   1.482       .  S
C345        C346   1.401       .  A
C345        H349   1.083       .  S
C346        C347   1.399       .  A
C346        C685   1.469       .  S
C347        H350   1.082       .  S
C351        C352   1.403       .  A
C351        C356   1.403       .  A
C351        C498   1.481       .  S
C352        C353   1.404       .  A
C352        H357   1.083       .  S
C353        C354   1.409       .  A
C353       C1366   1.482       .  S
C354        C355   1.404       .  A
C354        H358   1.083       .  S
C355        C356   1.399       .  A
C355        C461   1.483       .  S
C356        H359   1.085       .  S
C360        C361   1.410       .  A
C360        C365   1.409       .  A
C360        C433   1.494       .  S
C361        C362   1.406       .  A
C361        H366   1.085       .  S
C362        C363   1.404       .  A
C362        C993   1.487       .  S
C363        C364   1.402       .  A
C363        H367   1.083       .  S
C364        C365   1.404       .  A
C364       C1142   1.487       .  S
C365        H368   1.081       .  S
C369        C370   1.404       .  A
C369        C374   1.403       .  A
C369        C442   1.479       .  S
C370        C371   1.403       .  A
C370        H375   1.084       .  S
C371        C372   1.405       .  A
C371        C405   1.486       .  S
C372        C373   1.409       .  A
C372        H376   1.082       .  S
C373        C374   1.407       .  A
C373       C1478   1.490       .  S
C374        H377   1.084       .  S
Zn378       O382   1.965       .  S
Zn378       O383   2.029       .  S
Zn378       O387   2.011       .  S
Zn378       O394   2.026       .  S
Zn379       O382   1.958       .  S
Zn379       O384   2.024       .  S
Zn379       O386   2.006       .  S
Zn379       O390   2.030       .  S
Zn380       O382   1.956       .  S
Zn380       O385   2.018       .  S
Zn380       O388   2.003       .  S
Zn380       O391   2.029       .  S
Zn381       O382   1.955       .  S
Zn381       O389   2.007       .  S
Zn381       O392   2.018       .  S
Zn381       O393   2.003       .  S
O383        C395   1.275       .  A
O384        C396   1.274       .  A
O385        C397   1.274       .  A
O386        C395   1.274       .  A
O387        C397   1.273       .  A
O388        C396   1.273       .  A
O389        C398   1.273       .  A
O390        C399   1.275       .  A
O391        C398   1.274       .  A
O392        C399   1.273       .  A
O393        C400   1.272       .  A
O394        C400   1.274       .  A
C395       C1870   1.481       .  S
C396       C1590   1.475       .  S
C397       C2010   1.475       .  S
C398        C470   1.493       .  S
C399        C414   1.495       .  S
C400       C1730   1.479       .  S
C401        C402   1.404       .  A
C401        C406   1.403       .  A
C401        H411   1.082       .  S
C402        C403   1.410       .  A
C402        C407   1.487       .  S
C403        C404   1.403       .  A
C403        N408   1.429       .  S
C404        C405   1.404       .  A
C404        H409   1.083       .  S
C405        C406   1.412       .  A
C406        N410   1.429       .  S
C407        C412   1.408       .  A
C407        C416   1.402       .  A
N408        O423   1.262       .  A
N408        O424   1.262       .  A
N410        O421   1.262       .  A
N410        O422   1.262       .  A
C412        C413   1.402       .  A
C412        N417   1.429       .  S
C413        C414   1.409       .  A
C413        H418   1.081       .  S
C414        C415   1.418       .  A
C415        C416   1.403       .  A
C415        N419   1.429       .  S
C416        H420   1.081       .  S
N417        O427   1.262       .  A
N417        O428   1.262       .  A
N419        O425   1.262       .  A
N419        O426   1.262       .  A
C429        C430   1.404       .  A
C429        C434   1.402       .  A
C429        H439   1.080       .  S
C430        C431   1.412       .  A
C430        C435   1.492       .  S
C431        C432   1.404       .  A
C431        N436   1.430       .  S
C432        C433   1.406       .  A
C432        H437   1.080       .  S
C433        C434   1.416       .  A
C434        N438   1.432       .  S
C435        C440   1.415       .  A
C435        C444   1.406       .  A
N436        O451   1.262       .  A
N436        O452   1.262       .  A
N438        O449   1.262       .  A
N438        O450   1.262       .  A
C440        C441   1.404       .  A
C440        N445   1.430       .  S
C441        C442   1.401       .  A
C441        H446   1.082       .  S
C442        C443   1.409       .  A
C443        C444   1.402       .  A
C443        N447   1.431       .  S
C444        H448   1.082       .  S
N445        O455   1.262       .  A
N445        O456   1.262       .  A
N447        O453   1.262       .  A
N447        O454   1.262       .  A
C457        C458   1.406       .  A
C457        C462   1.403       .  A
C457        H467   1.083       .  S
C458        C459   1.411       .  A
C458        C463   1.488       .  S
C459        C460   1.400       .  A
C459        N464   1.430       .  S
C460        C461   1.403       .  A
C460        H465   1.084       .  S
C461        C462   1.410       .  A
C462        N466   1.429       .  S
C463        C468   1.409       .  A
C463        C472   1.404       .  A
N464        O479   1.262       .  A
N464        O480   1.262       .  A
N466        O477   1.262       .  A
N466        O478   1.262       .  A
C468        C469   1.401       .  A
C468        N473   1.430       .  S
C469        C470   1.409       .  A
C469        H474   1.082       .  S
C470        C471   1.416       .  A
C471        C472   1.402       .  A
C471        N475   1.429       .  S
C472        H476   1.082       .  S
N473        O483   1.262       .  A
N473        O484   1.262       .  A
N475        O481   1.262       .  A
N475        O482   1.262       .  A
C485        C486   1.401       .  A
C485        C490   1.401       .  A
C485        H495   1.081       .  S
C486        C487   1.406       .  A
C486        C491   1.473       .  S
C487        C488   1.396       .  A
C487        N492   1.429       .  S
C488        C489   1.405       .  A
C488        H493   1.081       .  S
C489        C490   1.414       .  A
C490        N494   1.429       .  S
C491        C496   1.406       .  A
C491        C500   1.401       .  A
N492        O507   1.262       .  A
N492        O508   1.262       .  A
N494        O505   1.262       .  A
N494        O506   1.262       .  A
C496        C497   1.397       .  A
C496        N501   1.430       .  S
C497        C498   1.405       .  A
C497        H502   1.081       .  S
C498        C499   1.412       .  A
C499        C500   1.401       .  A
C499        N503   1.429       .  S
C500        H504   1.081       .  S
N501        O511   1.262       .  A
N501        O512   1.262       .  A
N503        O509   1.262       .  A
N503        O510   1.262       .  A
C513        C514   1.404   1_655  A
C513        C518   1.397       .  A
C513        H523   1.082       .  S
C514        C515   1.415       .  A
C514        C519   1.485       .  S
C515        C516   1.404   1_455  A
C515        N520   1.435       .  S
C516        C517   1.403       .  A
C516        H521   1.081       .  S
C517        C518   1.407       .  A
C518        N522   1.429       .  S
C519        C524   1.412       .  A
C519        C528   1.403       .  A
N520        O535   1.262       .  A
N520        O536   1.262       .  A
N522        O533   1.262       .  A
N522        O534   1.262       .  A
C524        C525   1.402       .  A
C524        N529   1.434       .  S
C525        C526   1.408       .  A
C525        H530   1.081       .  S
C526        C527   1.414       .  A
C527        C528   1.400       .  A
C527        N531   1.429       .  S
C528        H532   1.082       .  S
N529        O539   1.262       .  A
N529        O540   1.263       .  A
N531        O537   1.262       .  A
N531        O538   1.262       .  A
C541        C542   1.403       .  A
C541        C546   1.402       .  A
C541        H551   1.082       .  S
C542        C543   1.412       .  A
C542        C547   1.488       .  S
C543        C544   1.403       .  A
C543        N548   1.430       .  S
C544        C545   1.404       .  A
C544        H549   1.082       .  S
C545        C546   1.414       .  A
C546        N550   1.431       .  S
C547        C552   1.412   1_565  A
C547        C556   1.403   1_565  A
N548        O563   1.262       .  A
N548        O564   1.262       .  A
N550        O561   1.262       .  A
N550        O562   1.262       .  A
C552        C553   1.404       .  A
C552        N557   1.429       .  S
C553        C554   1.404       .  A
C553        H558   1.085       .  S
C554        C555   1.412       .  A
C555        C556   1.400       .  A
C555        N559   1.430       .  S
C556        H560   1.085   1_545  S
N557        O567   1.262       .  A
N557        O568   1.262       .  A
N559        O565   1.262       .  A
N559        O566   1.262       .  A
C569        C570   1.403       .  A
C569        C574   1.401       .  A
C569        H579   1.083       .  S
C570        C571   1.413       .  A
C570        C575   1.486       .  S
C571        C572   1.402       .  A
C571        N576   1.435       .  S
C572        C573   1.407       .  A
C572        H577   1.083       .  S
C573        C574   1.413       .  A
C574        N578   1.429       .  S
C575        C580   1.415   1_455  A
C575        C584   1.403   1_455  A
N576        O591   1.262       .  A
N576        O592   1.263       .  A
N578        O589   1.262       .  A
N578        O590   1.262       .  A
C580        C581   1.404       .  A
C580        N585   1.435   1_655  S
C581        C582   1.405       .  A
C581        H586   1.080       .  S
C582        C583   1.413       .  A
C583        C584   1.400       .  A
C583        N587   1.431       .  S
C584        H588   1.080       .  S
N585        O595   1.262       .  A
N585        O596   1.262       .  A
N587        O593   1.262       .  A
N587        O594   1.262       .  A
C597        C598   1.401       .  A
C597        C602   1.401       .  A
C597        H607   1.081       .  S
C598        C599   1.407       .  A
C598        C603   1.476       .  S
C599        C600   1.400       .  A
C599        N604   1.429       .  S
C600        C601   1.404       .  A
C600        H605   1.081       .  S
C601        C602   1.412       .  A
C602        N606   1.434       .  S
C603        C608   1.404       .  A
C603        C612   1.400       .  A
N604        O619   1.262       .  A
N604        O620   1.262       .  A
N606        O617   1.262   1_565  A
N606        O618   1.262       .  A
C608        C609   1.397       .  A
C608        N613   1.429       .  S
C609        C610   1.408       .  A
C609        H614   1.080       .  S
C610        C611   1.418       .  A
C611        C612   1.402       .  A
C611        N615   1.429       .  S
C612        H616   1.080       .  S
N613        O623   1.262       .  A
N613        O624   1.262       .  A
N615        O621   1.262       .  A
N615        O622   1.262       .  A
C625        C626   1.405       .  A
C625        C630   1.402       .  A
C625        H635   1.084       .  S
C626        C627   1.413       .  A
C626        C631   1.492       .  S
C627        C628   1.403       .  A
C627        N632   1.430       .  S
C628        C629   1.404       .  A
C628        H633   1.084       .  S
C629        C630   1.414       .  A
C630        N634   1.434       .  S
C631        C636   1.415       .  A
C631        C640   1.404       .  A
N632        O647   1.262       .  A
N632        O648   1.262       .  A
N634        O645   1.262       .  A
N634        O646   1.262       .  A
C636        C637   1.403       .  A
C636        N641   1.431       .  S
C637        C638   1.402       .  A
C637        H642   1.086       .  S
C638        C639   1.412       .  A
C639        C640   1.401       .  A
C639        N643   1.432       .  S
C640        H644   1.085       .  S
N641        O651   1.262       .  A
N641        O652   1.262       .  A
N643        O649   1.263       .  A
N643        O650   1.262       .  A
C653        C654   1.406       .  A
C653        C658   1.402       .  A
C653        H663   1.081       .  S
C654        C655   1.411       .  A
C654        C659   1.488       .  S
C655        C656   1.400       .  A
C655        N660   1.429       .  S
C656        C657   1.404       .  A
C656        H661   1.082       .  S
C657        C658   1.409       .  A
C658        N662   1.429       .  S
C659        C664   1.411       .  A
C659        C668   1.406       .  A
N660        O675   1.262       .  A
N660        O676   1.262       .  A
N662        O673   1.262       .  A
N662        O674   1.262       .  A
C664        C665   1.398       .  A
C664        N669   1.430       .  S
C665        C666   1.403       .  A
C665        H670   1.081       .  S
C666        C667   1.410       .  A
C667        C668   1.405       .  A
C667        N671   1.429       .  S
C668        H672   1.079       .  S
N669        O679   1.262       .  A
N669        O680   1.262       .  A
N671        O677   1.262       .  A
N671        O678   1.262       .  A
C681        C682   1.405       .  A
C681        C686   1.396       .  A
C681        H691   1.086       .  S
C682        C683   1.417       .  A
C682        C687   1.484       .  S
C683        C684   1.402       .  A
C683        N688   1.434       .  S
C684        C685   1.400       .  A
C684        H689   1.086       .  S
C685        C686   1.404       .  A
C686        N690   1.430       .  S
C687        C692   1.413       .  A
C687        C696   1.401       .  A
N688        O703   1.262       .  A
N688        O704   1.262       .  A
N690        O701   1.262       .  A
N690        O702   1.262       .  A
C692        C693   1.405       .  A
C692        N697   1.435       .  S
C693        C694   1.407       .  A
C693        H698   1.080       .  S
C694        C695   1.415       .  A
C695        C696   1.394       .  A
C695        N699   1.430       .  S
C696        H700   1.081       .  S
N697        O707   1.262       .  A
N697        O708   1.263       .  A
N699        O705   1.262       .  A
N699        O706   1.262       .  A
C709        C710   1.407       .  A
C709        C714   1.404       .  A
C709        H719   1.081       .  S
C710        C711   1.410       .  A
C710        C715   1.486       .  S
C711        C712   1.396       .  A
C711        N716   1.430       .  S
C712        C713   1.404       .  A
C712        H717   1.082       .  S
C713        C714   1.411       .  A
C714        N718   1.429       .  S
C715        C720   1.410       .  A
C715        C724   1.406       .  A
N716        O731   1.262       .  A
N716        O732   1.262       .  A
N718        O729   1.262       .  A
N718        O730   1.262       .  A
C720        C721   1.398       .  A
C720        N725   1.430       .  S
C721        C722   1.405       .  A
C721        H726   1.083       .  S
C722        C723   1.410       .  A
C723        C724   1.402       .  A
C723        N727   1.429       .  S
C724        H728   1.083       .  S
N725        O735   1.262       .  A
N725        O736   1.262       .  A
N727        O733   1.262       .  A
N727        O734   1.262       .  A
C737        C738   1.404       .  A
C737        C742   1.403       .  A
C737        H747   1.077       .  S
C738        C739   1.411       .  A
C738        C743   1.486       .  S
C739        C740   1.403       .  A
C739        N744   1.429       .  S
C740        C741   1.402       .  A
C740        H745   1.078       .  S
C741        C742   1.410       .  A
C742        N746   1.429       .  S
C743        C748   1.409       .  A
C743        C752   1.400       .  A
N744        O759   1.262       .  A
N744        O760   1.262       .  A
N746        O757   1.262       .  A
N746        O758   1.261       .  A
C748        C749   1.407       .  A
C748        N753   1.428       .  S
C749        C750   1.408       .  A
C749        H754   1.077       .  S
C750        C751   1.421       .  A
C751        C752   1.400       .  A
C751        N755   1.430       .  S
C752        H756   1.077       .  S
N753        O763   1.262       .  A
N753        O764   1.262       .  A
N755        O761   1.262       .  A
N755        O762   1.262       .  A
C765        C766   1.404       .  A
C765        C770   1.402   1_545  A
C765        H775   1.077       .  S
C766        C767   1.407   1_545  A
C766        C771   1.480       .  S
C767        C768   1.398       .  A
C767        N772   1.429   1_565  S
C768        C769   1.404       .  A
C768        H773   1.077       .  S
C769        C770   1.410       .  A
C770        N774   1.429       .  S
C771        C776   1.406       .  A
C771        C780   1.401       .  A
N772        O787   1.262       .  A
N772        O788   1.262       .  A
N774        O785   1.262       .  A
N774        O786   1.262       .  A
C776        C777   1.400       .  A
C776        N781   1.430       .  S
C777        C778   1.408       .  A
C777        H782   1.076       .  S
C778        C779   1.418       .  A
C779        C780   1.401       .  A
C779        N783   1.430       .  S
C780        H784   1.076       .  S
N781        O791   1.262       .  A
N781        O792   1.262       .  A
N783        O789   1.262       .  A
N783        O790   1.262       .  A
C793        C794   1.402       .  A
C793        C798   1.400       .  A
C793        H803   1.077       .  S
C794        C795   1.409       .  A
C794        C799   1.487       .  S
C795        C796   1.403       .  A
C795        N800   1.430       .  S
C796        C797   1.410       .  A
C796        H801   1.077       .  S
C797        C798   1.417       .  A
C798        N802   1.429       .  S
C799        C804   1.410       .  A
C799        C808   1.405       .  A
N800        O815   1.262       .  A
N800        O816   1.262       .  A
N802        O813   1.262       .  A
N802        O814   1.262       .  A
C804        C805   1.400   1_545  A
C804        N809   1.431       .  S
C805        C806   1.405       .  A
C805        H810   1.076       .  S
C806        C807   1.413       .  A
C807        C808   1.405   1_565  A
C807        N811   1.430       .  S
C808        H812   1.075       .  S
N809        O819   1.262   1_545  A
N809        O820   1.262       .  A
N811        O817   1.262       .  A
N811        O818   1.262       .  A
C821        C822   1.404       .  A
C821        C826   1.402       .  A
C821        H831   1.076       .  S
C822        C823   1.410       .  A
C822        C827   1.485   1_556  S
C823        C824   1.402       .  A
C823        N828   1.429       .  S
C824        C825   1.404       .  A
C824        H829   1.077       .  S
C825        C826   1.411       .  A
C826        N830   1.430       .  S
C827        C832   1.411       .  A
C827        C836   1.403       .  A
N828        O843   1.262       .  A
N828        O844   1.262       .  A
N830        O841   1.262       .  A
N830        O842   1.262       .  A
C832        C833   1.404       .  A
C832        N837   1.429       .  S
C833        C834   1.403       .  A
C833        H838   1.077       .  S
C834        C835   1.412       .  A
C835        C836   1.401       .  A
C835        N839   1.430       .  S
C836        H840   1.077       .  S
N837        O847   1.262       .  A
N837        O848   1.262       .  A
N839        O845   1.262       .  A
N839        O846   1.262       .  A
C849        C850   1.404       .  A
C849        C854   1.400       .  A
C849        H859   1.079       .  S
C850        C851   1.413       .  A
C850        C855   1.491       .  S
C851        C852   1.403       .  A
C851        N856   1.430       .  S
C852        C853   1.406       .  A
C852        H857   1.080       .  S
C853        C854   1.413       .  A
C854        N858   1.429       .  S
C855        C860   1.412       .  A
C855        C864   1.407       .  A
N856        O871   1.262       .  A
N856        O872   1.262       .  A
N858        O869   1.262       .  A
N858        O870   1.262       .  A
C860        C861   1.396       .  A
C860        N865   1.431       .  S
C861        C862   1.405       .  A
C861        H866   1.082       .  S
C862        C863   1.412       .  A
C863        C864   1.405       .  A
C863        N867   1.429       .  S
C864        H868   1.081       .  S
N865        O875   1.262       .  A
N865        O876   1.262       .  A
N867        O873   1.262       .  A
N867        O874   1.262       .  A
C877        C878   1.402       .  A
C877        C882   1.399   1_556  A
C877        H887   1.080       .  S
C878        C879   1.410       .  A
C878        C883   1.476       .  S
C879        C880   1.399   1_556  A
C879        N884   1.433       .  S
C880        C881   1.404       .  A
C880        H885   1.080       .  S
C881        C882   1.410       .  A
C882        N886   1.430       .  S
C883        C888   1.410       .  A
C883        C892   1.401       .  A
N884        O899   1.262       .  A
N884        O900   1.262       .  A
N886        O897   1.262       .  A
N886        O898   1.262       .  A
C888        C889   1.400       .  A
C888        N893   1.434       .  S
C889        C890   1.404       .  A
C889        H894   1.083       .  S
C890        C891   1.410       .  A
C891        C892   1.397       .  A
C891        N895   1.429       .  S
C892        H896   1.083       .  S
N893        O903   1.262       .  A
N893        O904   1.262       .  A
N895        O901   1.262       .  A
N895        O902   1.262       .  A
C905        C906   1.405       .  A
C905        C910   1.402       .  A
C905        H915   1.079       .  S
C906        C907   1.409       .  A
C906        C911   1.485       .  S
C907        C908   1.399       .  A
C907        N912   1.430       .  S
C908        C909   1.406       .  A
C908        H913   1.079       .  S
C909        C910   1.412       .  A
C910        N914   1.430       .  S
C911        C916   1.410       .  A
C911        C920   1.406       .  A
N912        O927   1.262       .  A
N912        O928   1.262       .  A
N914        O925   1.262       .  A
N914        O926   1.262       .  A
C916        C917   1.397       .  A
C916        N921   1.430       .  S
C917        C918   1.402       .  A
C917        H922   1.080       .  S
C918        C919   1.408       .  A
C919        C920   1.404       .  A
C919        N923   1.428       .  S
C920        H924   1.079       .  S
N921        O931   1.262       .  A
N921        O932   1.262       .  A
N923        O929   1.262       .  A
N923        O930   1.262       .  A
C933        C934   1.404       .  A
C933        C938   1.400       .  A
C933        H943   1.082       .  S
C934        C935   1.412       .  A
C934        C939   1.485       .  S
C935        C936   1.402       .  A
C935        N940   1.430       .  S
C936        C937   1.403       .  A
C936        H941   1.083       .  S
C937        C938   1.410       .  A
C938        N942   1.430       .  S
C939        C944   1.412       .  A
C939        C948   1.400       .  A
N940        O955   1.262       .  A
N940        O956   1.262       .  A
N942        O953   1.262       .  A
N942        O954   1.262       .  A
C944        C945   1.406       .  A
C944        N949   1.429       .  S
C945        C946   1.405       .  A
C945        H950   1.082       .  S
C946        C947   1.413       .  A
C947        C948   1.396       .  A
C947        N951   1.428       .  S
C948        H952   1.082       .  S
N949        O959   1.262       .  A
N949        O960   1.262       .  A
N951        O957   1.262       .  A
N951        O958   1.262       .  A
C961        C962   1.404       .  A
C961        C966   1.405       .  A
C961        H971   1.078       .  S
C962        C963   1.406       .  A
C962        C967   1.479       .  S
C963        C964   1.398       .  A
C963        N968   1.430       .  S
C964        C965   1.406       .  A
C964        H969   1.079       .  S
C965        C966   1.412       .  A
C966        N970   1.429       .  S
C967        C972   1.404       .  A
C967        C976   1.403       .  A
N968        O983   1.261       .  A
N968        O984   1.262       .  A
N970        O981   1.262       .  A
N970        O982   1.262       .  A
C972        C973   1.396       .  A
C972        N977   1.430       .  S
C973        C974   1.410       .  A
C973        H978   1.081       .  S
C974        C975   1.415       .  A
C975        C976   1.407       .  A
C975        N979   1.428       .  S
C976        H980   1.081       .  S
N977        O987   1.262       .  A
N977        O988   1.262       .  A
N979        O985   1.262       .  A
N979        O986   1.262       .  A
C989        C990   1.402       .  A
C989        C994   1.402       .  A
C989        H999   1.079       .  S
C990        C991   1.410       .  A
C990        C995   1.484       .  S
C991        C992   1.403       .  A
C991        N996   1.429       .  S
C992        C993   1.405       .  A
C992        H997   1.079       .  S
C993        C994   1.413       .  A
C994        N998   1.431       .  S
C995       C1000   1.409       .  A
C995       C1004   1.400       .  A
N996       O1011   1.262       .  A
N996       O1012   1.262       .  A
N998       O1009   1.262       .  A
N998       O1010   1.262       .  A
C1000      C1001   1.407       .  A
C1000      N1005   1.429       .  S
C1001      C1002   1.408       .  A
C1001      H1006   1.078       .  S
C1002      C1003   1.416       .  A
C1003      C1004   1.398       .  A
C1003      N1007   1.430       .  S
C1004      H1008   1.078       .  S
N1005      O1015   1.262       .  A
N1005      O1016   1.262       .  A
N1007      O1013   1.262       .  A
N1007      O1014   1.262       .  A
C1017      C1018   1.402       .  A
C1017      C1022   1.398   1_554  A
C1017      H1027   1.086       .  S
C1018      C1019   1.408       .  A
C1018      C1023   1.478       .  S
C1019      C1020   1.400       .  A
C1019      N1024   1.429       .  S
C1020      C1021   1.404   1_554  A
C1020      H1025   1.086       .  S
C1021      C1022   1.411       .  A
C1022      N1026   1.430       .  S
C1023      C1028   1.407       .  A
C1023      C1032   1.401       .  A
N1024      O1039   1.262       .  A
N1024      O1040   1.262       .  A
N1026      O1037   1.262       .  A
N1026      O1038   1.262       .  A
C1028      C1029   1.396       .  A
C1028      N1033   1.430       .  S
C1029      C1030   1.407       .  A
C1029      H1034   1.083       .  S
C1030      C1031   1.417       .  A
C1031      C1032   1.401       .  A
C1031      N1035   1.429       .  S
C1032      H1036   1.083       .  S
N1033      O1043   1.262       .  A
N1033      O1044   1.262       .  A
N1035      O1041   1.262       .  A
N1035      O1042   1.262       .  A
C1045      C1046   1.401       .  A
C1045      C1050   1.399       .  A
C1045      H1055   1.080       .  S
C1046      C1047   1.410       .  A
C1046      C1051   1.482       .  S
C1047      C1048   1.404       .  A
C1047      N1052   1.431       .  S
C1048      C1049   1.406       .  A
C1048      H1053   1.080       .  S
C1049      C1050   1.415       .  A
C1050      N1054   1.430       .  S
C1051      C1056   1.414       .  A
C1051      C1060   1.404       .  A
N1052      O1067   1.262       .  A
N1052      O1068   1.262       .  A
N1054      O1065   1.262       .  A
N1054      O1066   1.262       .  A
C1056      C1057   1.401       .  A
C1056      N1061   1.432       .  S
C1057      C1058   1.399       .  A
C1057      H1062   1.086       .  S
C1058      C1059   1.407       .  A
C1059      C1060   1.402       .  A
C1059      N1063   1.429       .  S
C1060      H1064   1.085       .  S
N1061      O1071   1.262       .  A
N1061      O1072   1.262       .  A
N1063      O1069   1.262       .  A
N1063      O1070   1.262       .  A
C1073      C1074   1.402       .  A
C1073      C1078   1.403       .  A
C1073      H1083   1.083       .  S
C1074      C1075   1.403       .  A
C1074      C1079   1.477       .  S
C1075      C1076   1.397       .  A
C1075      N1080   1.429       .  S
C1076      C1077   1.409       .  A
C1076      H1081   1.082       .  S
C1077      C1078   1.417       .  A
C1078      N1082   1.429       .  S
C1079      C1084   1.407       .  A
C1079      C1088   1.401       .  A
N1080      O1095   1.262       .  A
N1080      O1096   1.262       .  A
N1082      O1093   1.262       .  A
N1082      O1094   1.262       .  A
C1084      C1085   1.400   1_554  A
C1084      N1089   1.430       .  S
C1085      C1086   1.405       .  A
C1085      H1090   1.083       .  S
C1086      C1087   1.413   1_556  A
C1087      C1088   1.402       .  A
C1087      N1091   1.434   1_554  S
C1088      H1092   1.083       .  S
N1089      O1099   1.262       .  A
N1089      O1100   1.262       .  A
N1091      O1097   1.262       .  A
N1091      O1098   1.262   1_556  A
C1101      C1102   1.400       .  A
C1101      C1106   1.398   1_655  A
C1101      H1111   1.081       .  S
C1102      C1103   1.409   1_655  A
C1102      C1107   1.478       .  S
C1103      C1104   1.400       .  A
C1103      N1108   1.429   1_455  S
C1104      C1105   1.404       .  A
C1104      H1109   1.081       .  S
C1105      C1106   1.414       .  A
C1106      N1110   1.431       .  S
C1107      C1112   1.408       .  A
C1107      C1116   1.401       .  A
N1108      O1123   1.262   1_655  A
N1108      O1124   1.262       .  A
N1110      O1121   1.262       .  A
N1110      O1122   1.262       .  A
C1112      C1113   1.399       .  A
C1112      N1117   1.429       .  S
C1113      C1114   1.405       .  A
C1113      H1118   1.082       .  S
C1114      C1115   1.413       .  A
C1115      C1116   1.400       .  A
C1115      N1119   1.433       .  S
C1116      H1120   1.081       .  S
N1117      O1127   1.262       .  A
N1117      O1128   1.262       .  A
N1119      O1125   1.262       .  A
N1119      O1126   1.262       .  A
C1129      C1130   1.401       .  A
C1129      C1134   1.402       .  A
C1129      H1139   1.081       .  S
C1130      C1131   1.407       .  A
C1130      C1135   1.484       .  S
C1131      C1132   1.402       .  A
C1131      N1136   1.430       .  S
C1132      C1133   1.409       .  A
C1132      H1137   1.080       .  S
C1133      C1134   1.418       .  A
C1134      N1138   1.429       .  S
C1135      C1140   1.408       .  A
C1135      C1144   1.404       .  A
N1136      O1151   1.262       .  A
N1136      O1152   1.262       .  A
N1138      O1149   1.262       .  A
N1138      O1150   1.262       .  A
C1140      C1141   1.401       .  A
C1140      N1145   1.429       .  S
C1141      C1142   1.405       .  A
C1141      H1146   1.083       .  S
C1142      C1143   1.412       .  A
C1143      C1144   1.403       .  A
C1143      N1147   1.429       .  S
C1144      H1148   1.083       .  S
N1145      O1155   1.262       .  A
N1145      O1156   1.262       .  A
N1147      O1153   1.262       .  A
N1147      O1154   1.262       .  A
C1157      C1158   1.404       .  A
C1157      C1162   1.401       .  A
C1157      H1167   1.081       .  S
C1158      C1159   1.412       .  A
C1158      C1163   1.489       .  S
C1159      C1160   1.405       .  A
C1159      N1164   1.430       .  S
C1160      C1161   1.406       .  A
C1160      H1165   1.081       .  S
C1161      C1162   1.413       .  A
C1162      N1166   1.431       .  S
C1163      C1168   1.411       .  A
C1163      C1172   1.404       .  A
N1164      O1179   1.262       .  A
N1164      O1180   1.262       .  A
N1166      O1177   1.262       .  A
N1166      O1178   1.262       .  A
C1168      C1169   1.403       .  A
C1168      N1173   1.430       .  S
C1169      C1170   1.404       .  A
C1169      H1174   1.079       .  S
C1170      C1171   1.415       .  A
C1171      C1172   1.402       .  A
C1171      N1175   1.432       .  S
C1172      H1176   1.079       .  S
N1173      O1183   1.262       .  A
N1173      O1184   1.262       .  A
N1175      O1181   1.262       .  A
N1175      O1182   1.262       .  A
C1185      C1186   1.405       .  A
C1185      C1190   1.399       .  A
C1185      H1195   1.074       .  S
C1186      C1187   1.413       .  A
C1186      C1191   1.490       .  S
C1187      C1188   1.404       .  A
C1187      N1192   1.431       .  S
C1188      C1189   1.405       .  A
C1188      H1193   1.075       .  S
C1189      C1190   1.413       .  A
C1190      N1194   1.433       .  S
C1191      C1196   1.412       .  A
C1191      C1200   1.405       .  A
N1192      O1207   1.262       .  A
N1192      O1208   1.262       .  A
N1194      O1205   1.262       .  A
N1194      O1206   1.262       .  A
C1196      C1197   1.403       .  A
C1196      N1201   1.432       .  S
C1197      C1198   1.405       .  A
C1197      H1202   1.074       .  S
C1198      C1199   1.414       .  A
C1199      C1200   1.401       .  A
C1199      N1203   1.431       .  S
C1200      H1204   1.073       .  S
N1201      O1211   1.262       .  A
N1201      O1212   1.262       .  A
N1203      O1209   1.262       .  A
N1203      O1210   1.262       .  A
C1213      C1214   1.403       .  A
C1213      C1218   1.400       .  A
C1213      H1223   1.082       .  S
C1214      C1215   1.413       .  A
C1214      C1219   1.484       .  S
C1215      C1216   1.405       .  A
C1215      N1220   1.432       .  S
C1216      C1217   1.403       .  A
C1216      H1221   1.082   1_655  S
C1217      C1218   1.406       .  A
C1218      N1222   1.428       .  S
C1219      C1224   1.410       .  A
C1219      C1228   1.401       .  A
N1220      O1235   1.262       .  A
N1220      O1236   1.262       .  A
N1222      O1233   1.262       .  A
N1222      O1234   1.261       .  A
C1224      C1225   1.404       .  A
C1224      N1229   1.432       .  S
C1225      C1226   1.410       .  A
C1225      H1230   1.080       .  S
C1226      C1227   1.416       .  A
C1227      C1228   1.401       .  A
C1227      N1231   1.428       .  S
C1228      H1232   1.081       .  S
N1229      O1239   1.262       .  A
N1229      O1240   1.262       .  A
N1231      O1237   1.262       .  A
N1231      O1238   1.262       .  A
C1241      C1242   1.402       .  A
C1241      C1246   1.399       .  A
C1241      H1251   1.075       .  S
C1242      C1243   1.412       .  A
C1242      C1247   1.489       .  S
C1243      C1244   1.408       .  A
C1243      N1248   1.429       .  S
C1244      C1245   1.406       .  A
C1244      H1249   1.075       .  S
C1245      C1246   1.413       .  A
C1246      N1250   1.430       .  S
C1247      C1252   1.412       .  A
C1247      C1256   1.404       .  A
N1248      O1263   1.262       .  A
N1248      O1264   1.262       .  A
N1250      O1261   1.262       .  A
N1250      O1262   1.262       .  A
C1252      C1253   1.404       .  A
C1252      N1257   1.429       .  S
C1253      C1254   1.403       .  A
C1253      H1258   1.077       .  S
C1254      C1255   1.414       .  A
C1255      C1256   1.404       .  A
C1255      N1259   1.431       .  S
C1256      H1260   1.076       .  S
N1257      O1267   1.262       .  A
N1257      O1268   1.262       .  A
N1259      O1265   1.262       .  A
N1259      O1266   1.262       .  A
C1269      C1270   1.403       .  A
C1269      C1274   1.401       .  A
C1269      H1279   1.085       .  S
C1270      C1271   1.405       .  A
C1270      C1275   1.476       .  S
C1271      C1272   1.398       .  A
C1271      N1276   1.429       .  S
C1272      C1273   1.405       .  A
C1272      H1277   1.086       .  S
C1273      C1274   1.411       .  A
C1274      N1278   1.429   1_655  S
C1275      C1280   1.403       .  A
C1275      C1284   1.402       .  A
N1276      O1291   1.262       .  A
N1276      O1292   1.262       .  A
N1278      O1289   1.262       .  A
N1278      O1290   1.262       .  A
C1280      C1281   1.396       .  A
C1280      N1285   1.429       .  S
C1281      C1282   1.409       .  A
C1281      H1286   1.080       .  S
C1282      C1283   1.416       .  A
C1283      C1284   1.404       .  A
C1283      N1287   1.429       .  S
C1284      H1288   1.080       .  S
N1285      O1295   1.262       .  A
N1285      O1296   1.262       .  A
N1287      O1293   1.262       .  A
N1287      O1294   1.262       .  A
C1297      C1298   1.405       .  A
C1297      C1302   1.409       .  A
C1297      H1307   1.081       .  S
C1298      C1299   1.404       .  A
C1298      C1303   1.484       .  S
C1299      C1300   1.396       .  A
C1299      N1304   1.429       .  S
C1300      C1301   1.408       .  A
C1300      H1305   1.082       .  S
C1301      C1302   1.416       .  A
C1302      N1306   1.429       .  S
C1303      C1308   1.408       .  A
C1303      C1312   1.402       .  A
N1304      O1319   1.262       .  A
N1304      O1320   1.262       .  A
N1306      O1317   1.262       .  A
N1306      O1318   1.262       .  A
C1308      C1309   1.406       .  A
C1308      N1313   1.430       .  S
C1309      C1310   1.408       .  A
C1309      H1314   1.082       .  S
C1310      C1311   1.413       .  A
C1311      C1312   1.402       .  A
C1311      N1315   1.432       .  S
C1312      H1316   1.082       .  S
N1313      O1323   1.262       .  A
N1313      O1324   1.262       .  A
N1315      O1321   1.262       .  A
N1315      O1322   1.262   1_455  A
C1325      C1326   1.402       .  A
C1325      C1330   1.400       .  A
C1325      H1335   1.081       .  S
C1326      C1327   1.407       .  A
C1326      C1331   1.481       .  S
C1327      C1328   1.398       .  A
C1327      N1332   1.430       .  S
C1328      C1329   1.409       .  A
C1328      H1333   1.081       .  S
C1329      C1330   1.416       .  A
C1330      N1334   1.428       .  S
C1331      C1336   1.408       .  A
C1331      C1340   1.402       .  A
N1332      O1347   1.262       .  A
N1332      O1348   1.262       .  A
N1334      O1345   1.262       .  A
N1334      O1346   1.261       .  A
C1336      C1337   1.399       .  A
C1336      N1341   1.430       .  S
C1337      C1338   1.406   1_565  A
C1337      H1342   1.079       .  S
C1338      C1339   1.416   1_545  A
C1339      C1340   1.401       .  A
C1339      N1343   1.432   1_565  S
C1340      H1344   1.079       .  S
N1341      O1351   1.262       .  A
N1341      O1352   1.262       .  A
N1343      O1349   1.262       .  A
N1343      O1350   1.262       .  A
C1353      C1354   1.395       .  A
C1353      C1358   1.393       .  A
C1353      H1363   1.082       .  S
C1354      C1355   1.407       .  A
C1354      C1359   1.476       .  S
C1355      C1356   1.408       .  A
C1355      N1360   1.428       .  S
C1356      C1357   1.410       .  A
C1356      H1361   1.081       .  S
C1357      C1358   1.420       .  A
C1358      N1362   1.430       .  S
C1359      C1364   1.407       .  A
C1359      C1368   1.402       .  A
N1360      O1375   1.262       .  A
N1360      O1376   1.262       .  A
N1362      O1373   1.262       .  A
N1362      O1374   1.262       .  A
C1364      C1365   1.402       .  A
C1364      N1369   1.428       .  S
C1365      C1366   1.405       .  A
C1365      H1370   1.080       .  S
C1366      C1367   1.411       .  A
C1367      C1368   1.401       .  A
C1367      N1371   1.430       .  S
C1368      H1372   1.080       .  S
N1369      O1379   1.262       .  A
N1369      O1380   1.262       .  A
N1371      O1377   1.262       .  A
N1371      O1378   1.262       .  A
C1381      C1382   1.405       .  A
C1381      C1386   1.410       .  A
C1381      H1391   1.078       .  S
C1382      C1383   1.406       .  A
C1382      C1387   1.483       .  S
C1383      C1384   1.395       .  A
C1383      N1388   1.431       .  S
C1384      C1385   1.408       .  A
C1384      H1389   1.079       .  S
C1385      C1386   1.417       .  A
C1386      N1390   1.429       .  S
C1387      C1392   1.408       .  A
C1387      C1396   1.404       .  A
N1388      O1403   1.262       .  A
N1388      O1404   1.262       .  A
N1390      O1401   1.262       .  A
N1390      O1402   1.262       .  A
C1392      C1393   1.403       .  A
C1392      N1397   1.428       .  S
C1393      C1394   1.404       .  A
C1393      H1398   1.082       .  S
C1394      C1395   1.408       .  A
C1395      C1396   1.401       .  A
C1395      N1399   1.429       .  S
C1396      H1400   1.082       .  S
N1397      O1407   1.262       .  A
N1397      O1408   1.262       .  A
N1399      O1405   1.262       .  A
N1399      O1406   1.262       .  A
C1409      C1410   1.402       .  A
C1409      C1414   1.404       .  A
C1409      H1419   1.084       .  S
C1410      C1411   1.406       .  A
C1410      C1415   1.482       .  S
C1411      C1412   1.398       .  A
C1411      N1416   1.429       .  S
C1412      C1413   1.407       .  A
C1412      H1417   1.083       .  S
C1413      C1414   1.419       .  A
C1414      N1418   1.430       .  S
C1415      C1420   1.407       .  A
C1415      C1424   1.401       .  A
N1416      O1431   1.262       .  A
N1416      O1432   1.262       .  A
N1418      O1429   1.262       .  A
N1418      O1430   1.262       .  A
C1420      C1421   1.402   1_556  A
C1420      N1425   1.429       .  S
C1421      C1422   1.408       .  A
C1421      H1426   1.082       .  S
C1422      C1423   1.418       .  A
C1423      C1424   1.401   1_554  A
C1423      N1427   1.433       .  S
C1424      H1428   1.082       .  S
N1425      O1435   1.262       .  A
N1425      O1436   1.262       .  A
N1427      O1433   1.262       .  A
N1427      O1434   1.262       .  A
C1437      C1438   1.401       .  A
C1437      C1442   1.399       .  A
C1437      H1447   1.080       .  S
C1438      C1439   1.407       .  A
C1438      C1443   1.481       .  S
C1439      C1440   1.401       .  A
C1439      N1444   1.429       .  S
C1440      C1441   1.408       .  A
C1440      H1445   1.080       .  S
C1441      C1442   1.417       .  A
C1442      N1446   1.429       .  S
C1443      C1448   1.409       .  A
C1443      C1452   1.403       .  A
N1444      O1459   1.262       .  A
N1444      O1460   1.262       .  A
N1446      O1457   1.262       .  A
N1446      O1458   1.262       .  A
C1448      C1449   1.398       .  A
C1448      N1453   1.431       .  S
C1449      C1450   1.404       .  A
C1449      H1454   1.080       .  S
C1450      C1451   1.412       .  A
C1451      C1452   1.402       .  A
C1451      N1455   1.431       .  S
C1452      H1456   1.079       .  S
N1453      O1463   1.262       .  A
N1453      O1464   1.262       .  A
N1455      O1461   1.262       .  A
N1455      O1462   1.262       .  A
C1465      C1466   1.401       .  A
C1465      C1470   1.398       .  A
C1465      H1475   1.081       .  S
C1466      C1467   1.411       .  A
C1466      C1471   1.484       .  S
C1467      C1468   1.405       .  A
C1467      N1472   1.429       .  S
C1468      C1469   1.404       .  A
C1468      H1473   1.081       .  S
C1469      C1470   1.412       .  A
C1470      N1474   1.430       .  S
C1471      C1476   1.409       .  A
C1471      C1480   1.403       .  A
N1472      O1487   1.262       .  A
N1472      O1488   1.262       .  A
N1474      O1485   1.262       .  A
N1474      O1486   1.262       .  A
C1476      C1477   1.403       .  A
C1476      N1481   1.430       .  S
C1477      C1478   1.407       .  A
C1477      H1482   1.080       .  S
C1478      C1479   1.414       .  A
C1479      C1480   1.402       .  A
C1479      N1483   1.431       .  S
C1480      H1484   1.080       .  S
N1481      O1491   1.262       .  A
N1481      O1492   1.262       .  A
N1483      O1489   1.262       .  A
N1483      O1490   1.262       .  A
C1493      C1494   1.404       .  A
C1493      C1498   1.406       .  A
C1493      H1503   1.081       .  S
C1494      C1495   1.409       .  A
C1494      C1499   1.480       .  S
C1495      C1496   1.394       .  A
C1495      N1500   1.431       .  S
C1496      C1497   1.404       .  A
C1496      H1501   1.082       .  S
C1497      C1498   1.413       .  A
C1498      N1502   1.429       .  S
C1499      C1504   1.408       .  A
C1499      C1508   1.403       .  A
N1500      O1515   1.262       .  A
N1500      O1516   1.262       .  A
N1502      O1513   1.262       .  A
N1502      O1514   1.262       .  A
C1504      C1505   1.399       .  A
C1504      N1509   1.429       .  S
C1505      C1506   1.405       .  A
C1505      H1510   1.083       .  S
C1506      C1507   1.412       .  A
C1507      C1508   1.400       .  A
C1507      N1511   1.429       .  S
C1508      H1512   1.083       .  S
N1509      O1519   1.262       .  A
N1509      O1520   1.262       .  A
N1511      O1517   1.262       .  A
N1511      O1518   1.262       .  A
C1521      C1522   1.400       .  A
C1521      C1526   1.401       .  A
C1521      H1531   1.077       .  S
C1522      C1523   1.406       .  A
C1522      C1527   1.472       .  S
C1523      C1524   1.400       .  A
C1523      N1528   1.429       .  S
C1524      C1525   1.404       .  A
C1524      H1529   1.077       .  S
C1525      C1526   1.413       .  A
C1526      N1530   1.431       .  S
C1527      C1532   1.405       .  A
C1527      C1536   1.397       .  A
N1528      O1543   1.262       .  A
N1528      O1544   1.262       .  A
N1530      O1541   1.262       .  A
N1530      O1542   1.262       .  A
C1532      C1533   1.401       .  A
C1532      N1537   1.428       .  S
C1533      C1534   1.408       .  A
C1533      H1538   1.083       .  S
C1534      C1535   1.417       .  A
C1535      C1536   1.397       .  A
C1535      N1539   1.428       .  S
C1536      H1540   1.083       .  S
N1537      O1547   1.262       .  A
N1537      O1548   1.261       .  A
N1539      O1545   1.261       .  A
N1539      O1546   1.262       .  A
C1549      C1550   1.403       .  A
C1549      C1554   1.400       .  A
C1549      H1559   1.084       .  S
C1550      C1551   1.412       .  A
C1550      C1555   1.474       .  S
C1551      C1552   1.396       .  A
C1551      N1556   1.432       .  S
C1552      C1553   1.400       .  A
C1552      H1557   1.084       .  S
C1553      C1554   1.407       .  A
C1554      N1558   1.429       .  S
C1555      C1560   1.406       .  A
C1555      C1564   1.400       .  A
N1556      O1571   1.262       .  A
N1556      O1572   1.262       .  A
N1558      O1569   1.262       .  A
N1558      O1570   1.262       .  A
C1560      C1561   1.401       .  A
C1560      N1565   1.432       .  S
C1561      C1562   1.408       .  A
C1561      H1566   1.080       .  S
C1562      C1563   1.415       .  A
C1563      C1564   1.397       .  A
C1563      N1567   1.430       .  S
C1564      H1568   1.081       .  S
N1565      O1575   1.262       .  A
N1565      O1576   1.262       .  A
N1567      O1573   1.262       .  A
N1567      O1574   1.262       .  A
C1577      C1578   1.406       .  A
C1577      C1582   1.401       .  A
C1577      H1587   1.079       .  S
C1578      C1579   1.410       .  A
C1578      C1583   1.484       .  S
C1579      C1580   1.399       .  A
C1579      N1584   1.430       .  S
C1580      C1581   1.405       .  A
C1580      H1585   1.079       .  S
C1581      C1582   1.408       .  A
C1582      N1586   1.429       .  S
C1583      C1588   1.411       .  A
C1583      C1592   1.406       .  A
N1584      O1599   1.262       .  A
N1584      O1600   1.262       .  A
N1586      O1597   1.262       .  A
N1586      O1598   1.262       .  A
C1588      C1589   1.396       .  A
C1588      N1593   1.432       .  S
C1589      C1590   1.402       .  A
C1589      H1594   1.080       .  S
C1590      C1591   1.410       .  A
C1591      C1592   1.404       .  A
C1591      N1595   1.430       .  S
C1592      H1596   1.079       .  S
N1593      O1603   1.262       .  A
N1593      O1604   1.262       .  A
N1595      O1601   1.262       .  A
N1595      O1602   1.262       .  A
C1605      C1606   1.403       .  A
C1605      C1610   1.402       .  A
C1605      H1615   1.078       .  S
C1606      C1607   1.407       .  A
C1606      C1611   1.477       .  S
C1607      C1608   1.398       .  A
C1607      N1612   1.431       .  S
C1608      C1609   1.404       .  A
C1608      H1613   1.078       .  S
C1609      C1610   1.412       .  A
C1610      N1614   1.435       .  S
C1611      C1616   1.404       .  A
C1611      C1620   1.403       .  A
N1612      O1627   1.262       .  A
N1612      O1628   1.262       .  A
N1614      O1625   1.262       .  A
N1614      O1626   1.262       .  A
C1616      C1617   1.396       .  A
C1616      N1621   1.429       .  S
C1617      C1618   1.408       .  A
C1617      H1622   1.079       .  S
C1618      C1619   1.414       .  A
C1619      C1620   1.401       .  A
C1619      N1623   1.429       .  S
C1620      H1624   1.079       .  S
N1621      O1631   1.262       .  A
N1621      O1632   1.262       .  A
N1623      O1629   1.262       .  A
N1623      O1630   1.262       .  A
C1633      C1634   1.403       .  A
C1633      C1638   1.400       .  A
C1633      H1643   1.076       .  S
C1634      C1635   1.411       .  A
C1634      C1639   1.485   1_556  S
C1635      C1636   1.403       .  A
C1635      N1640   1.430       .  S
C1636      C1637   1.405       .  A
C1636      H1641   1.077       .  S
C1637      C1638   1.414       .  A
C1638      N1642   1.435       .  S
C1639      C1644   1.413       .  A
C1639      C1648   1.406       .  A
N1640      O1655   1.262       .  A
N1640      O1656   1.262       .  A
N1642      O1653   1.262       .  A
N1642      O1654   1.262       .  A
C1644      C1645   1.399       .  A
C1644      N1649   1.431       .  S
C1645      C1646   1.400       .  A
C1645      H1650   1.082       .  S
C1646      C1647   1.409       .  A
C1647      C1648   1.402       .  A
C1647      N1651   1.432       .  S
C1648      H1652   1.080       .  S
N1649      O1659   1.262       .  A
N1649      O1660   1.262       .  A
N1651      O1657   1.262       .  A
N1651      O1658   1.262       .  A
C1661      C1662   1.404       .  A
C1661      C1666   1.404       .  A
C1661      H1671   1.078       .  S
C1662      C1663   1.412       .  A
C1662      C1667   1.491       .  S
C1663      C1664   1.405       .  A
C1663      N1668   1.430       .  S
C1664      C1665   1.404       .  A
C1664      H1669   1.079       .  S
C1665      C1666   1.412       .  A
C1666      N1670   1.431       .  S
C1667      C1672   1.413       .  A
C1667      C1676   1.401       .  A
N1668      O1683   1.262       .  A
N1668      O1684   1.262       .  A
N1670      O1681   1.262       .  A
N1670      O1682   1.262       .  A
C1672      C1673   1.409       .  A
C1672      N1677   1.429       .  S
C1673      C1674   1.405       .  A
C1673      H1678   1.079       .  S
C1674      C1675   1.414       .  A
C1675      C1676   1.399       .  A
C1675      N1679   1.430       .  S
C1676      H1680   1.079       .  S
N1677      O1687   1.262       .  A
N1677      O1688   1.262       .  A
N1679      O1685   1.262       .  A
N1679      O1686   1.262       .  A
C1689      C1690   1.406       .  A
C1689      C1694   1.406       .  A
C1689      H1699   1.076       .  S
C1690      C1691   1.412       .  A
C1690      C1695   1.494       .  S
C1691      C1692   1.404       .  A
C1691      N1696   1.431       .  S
C1692      C1693   1.406       .  A
C1692      H1697   1.078       .  S
C1693      C1694   1.414       .  A
C1694      N1698   1.433       .  S
C1695      C1700   1.411       .  A
C1695      C1704   1.405       .  A
N1696      O1711   1.262       .  A
N1696      O1712   1.262       .  A
N1698      O1709   1.262       .  A
N1698      O1710   1.262       .  A
C1700      C1701   1.403       .  A
C1700      N1705   1.430       .  S
C1701      C1702   1.407       .  A
C1701      H1706   1.081       .  S
C1702      C1703   1.417       .  A
C1703      C1704   1.404       .  A
C1703      N1707   1.429       .  S
C1704      H1708   1.081       .  S
N1705      O1715   1.262       .  A
N1705      O1716   1.262       .  A
N1707      O1713   1.262       .  A
N1707      O1714   1.262       .  A
C1717      C1718   1.400       .  A
C1717      C1722   1.401       .  A
C1717      H1727   1.081       .  S
C1718      C1719   1.410       .  A
C1718      C1723   1.479       .  S
C1719      C1720   1.400       .  A
C1719      N1724   1.431       .  S
C1720      C1721   1.405       .  A
C1720      H1725   1.081       .  S
C1721      C1722   1.415       .  A
C1722      N1726   1.431       .  S
C1723      C1728   1.410       .  A
C1723      C1732   1.403       .  A
N1724      O1739   1.262       .  A
N1724      O1740   1.262       .  A
N1726      O1737   1.262       .  A
N1726      O1738   1.262       .  A
C1728      C1729   1.399       .  A
C1728      N1733   1.433       .  S
C1729      C1730   1.404       .  A
C1729      H1734   1.084       .  S
C1730      C1731   1.412       .  A
C1731      C1732   1.402       .  A
C1731      N1735   1.430       .  S
C1732      H1736   1.084       .  S
N1733      O1743   1.262       .  A
N1733      O1744   1.262       .  A
N1735      O1741   1.262       .  A
N1735      O1742   1.262       .  A
C1745      C1746   1.405       .  A
C1745      C1750   1.404       .  A
C1745      H1755   1.084       .  S
C1746      C1747   1.414       .  A
C1746      C1751   1.487       .  S
C1747      C1748   1.402       .  A
C1747      N1752   1.433       .  S
C1748      C1749   1.402       .  A
C1748      H1753   1.084       .  S
C1749      C1750   1.408       .  A
C1750      N1754   1.428       .  S
C1751      C1756   1.410       .  A
C1751      C1760   1.403       .  A
N1752      O1767   1.262       .  A
N1752      O1768   1.262       .  A
N1754      O1765   1.262       .  A
N1754      O1766   1.262       .  A
C1756      C1757   1.404       .  A
C1756      N1761   1.434       .  S
C1757      C1758   1.409       .  A
C1757      H1762   1.078       .  S
C1758      C1759   1.416       .  A
C1759      C1760   1.402       .  A
C1759      N1763   1.429       .  S
C1760      H1764   1.079       .  S
N1761      O1771   1.262       .  A
N1761      O1772   1.262       .  A
N1763      O1769   1.262       .  A
N1763      O1770   1.262       .  A
C1773      C1774   1.404       .  A
C1773      C1778   1.401       .  A
C1773      H1783   1.083       .  S
C1774      C1775   1.413       .  A
C1774      C1779   1.490       .  S
C1775      C1776   1.405       .  A
C1775      N1780   1.429       .  S
C1776      C1777   1.402       .  A
C1776      H1781   1.084       .  S
C1777      C1778   1.411       .  A
C1778      N1782   1.429       .  S
C1779      C1784   1.411       .  A
C1779      C1788   1.404       .  A
N1780      O1795   1.262       .  A
N1780      O1796   1.262       .  A
N1782      O1793   1.262       .  A
N1782      O1794   1.262       .  A
C1784      C1785   1.403       .  A
C1784      N1789   1.429       .  S
C1785      C1786   1.405       .  A
C1785      H1790   1.081       .  S
C1786      C1787   1.414       .  A
C1787      C1788   1.403       .  A
C1787      N1791   1.430       .  S
C1788      H1792   1.081       .  S
N1789      O1799   1.262       .  A
N1789      O1800   1.262       .  A
N1791      O1797   1.262       .  A
N1791      O1798   1.262       .  A
C1801      C1802   1.404       .  A
C1801      C1806   1.402       .  A
C1801      H1811   1.079       .  S
C1802      C1803   1.407       .  A
C1802      C1807   1.483       .  S
C1803      C1804   1.399       .  A
C1803      N1808   1.430       .  S
C1804      C1805   1.408       .  A
C1804      H1809   1.079       .  S
C1805      C1806   1.416       .  A
C1806      N1810   1.429       .  S
C1807      C1812   1.410       .  A
C1807      C1816   1.405       .  A
N1808      O1823   1.262       .  A
N1808      O1824   1.262       .  A
N1810      O1821   1.262       .  A
N1810      O1822   1.262       .  A
C1812      C1813   1.400       .  A
C1812      N1817   1.431       .  S
C1813      C1814   1.404       .  A
C1813      H1818   1.078       .  S
C1814      C1815   1.410       .  A
C1815      C1816   1.403       .  A
C1815      N1819   1.433       .  S
C1816      H1820   1.077       .  S
N1817      O1827   1.262       .  A
N1817      O1828   1.262       .  A
N1819      O1825   1.262       .  A
N1819      O1826   1.262       .  A
C1829      C1830   1.404       .  A
C1829      C1834   1.398       .  A
C1829      H1839   1.075       .  S
C1830      C1831   1.412       .  A
C1830      C1835   1.484       .  S
C1831      C1832   1.404       .  A
C1831      N1836   1.431       .  S
C1832      C1833   1.404       .  A
C1832      H1837   1.076       .  S
C1833      C1834   1.408       .  A
C1834      N1838   1.431       .  S
C1835      C1840   1.412       .  A
C1835      C1844   1.402       .  A
N1836      O1851   1.262       .  A
N1836      O1852   1.262       .  A
N1838      O1849   1.262       .  A
N1838      O1850   1.262       .  A
C1840      C1841   1.404       .  A
C1840      N1845   1.430       .  S
C1841      C1842   1.404       .  A
C1841      H1846   1.075       .  S
C1842      C1843   1.413       .  A
C1843      C1844   1.398       .  A
C1843      N1847   1.430       .  S
C1844      H1848   1.074       .  S
N1845      O1855   1.262       .  A
N1845      O1856   1.262       .  A
N1847      O1853   1.262       .  A
N1847      O1854   1.262       .  A
C1857      C1858   1.406       .  A
C1857      C1862   1.402       .  A
C1857      H1867   1.082       .  S
C1858      C1859   1.409       .  A
C1858      C1863   1.484       .  S
C1859      C1860   1.397       .  A
C1859      N1864   1.431       .  S
C1860      C1861   1.406       .  A
C1860      H1865   1.082       .  S
C1861      C1862   1.412       .  A
C1862      N1866   1.429       .  S
C1863      C1868   1.410       .  A
C1863      C1872   1.405       .  A
N1864      O1879   1.262       .  A
N1864      O1880   1.262       .  A
N1866      O1877   1.262       .  A
N1866      O1878   1.262       .  A
C1868      C1869   1.398       .  A
C1868      N1873   1.431       .  S
C1869      C1870   1.405       .  A
C1869      H1874   1.083       .  S
C1870      C1871   1.412       .  A
C1871      C1872   1.402       .  A
C1871      N1875   1.430       .  S
C1872      H1876   1.082       .  S
N1873      O1883   1.262       .  A
N1873      O1884   1.262       .  A
N1875      O1881   1.262       .  A
N1875      O1882   1.262       .  A
C1885      C1886   1.400       .  A
C1885      C1890   1.398       .  A
C1885      H1895   1.079       .  S
C1886      C1887   1.407       .  A
C1886      C1891   1.476       .  S
C1887      C1888   1.397       .  A
C1887      N1892   1.430       .  S
C1888      C1889   1.407       .  A
C1888      H1893   1.079       .  S
C1889      C1890   1.417       .  A
C1890      N1894   1.430       .  S
C1891      C1896   1.408       .  A
C1891      C1900   1.403       .  A
N1892      O1907   1.262       .  A
N1892      O1908   1.262       .  A
N1894      O1905   1.262       .  A
N1894      O1906   1.262       .  A
C1896      C1897   1.398       .  A
C1896      N1901   1.429       .  S
C1897      C1898   1.402       .  A
C1897      H1902   1.080       .  S
C1898      C1899   1.409       .  A
C1899      C1900   1.398       .  A
C1899      N1903   1.429       .  S
C1900      H1904   1.080       .  S
N1901      O1911   1.262       .  A
N1901      O1912   1.262       .  A
N1903      O1909   1.262       .  A
N1903      O1910   1.262       .  A
C1913      C1914   1.404       .  A
C1913      C1918   1.400       .  A
C1913      H1923   1.081       .  S
C1914      C1915   1.410       .  A
C1914      C1919   1.481       .  S
C1915      C1916   1.398       .  A
C1915      N1920   1.430       .  S
C1916      C1917   1.404       .  A
C1916      H1921   1.082       .  S
C1917      C1918   1.409       .  A
C1918      N1922   1.429       .  S
C1919      C1924   1.410   1_655  A
C1919      C1928   1.404   1_655  A
N1920      O1935   1.262       .  A
N1920      O1936   1.262       .  A
N1922      O1933   1.262       .  A
N1922      O1934   1.262       .  A
C1924      C1925   1.396       .  A
C1924      N1929   1.430   1_455  S
C1925      C1926   1.403       .  A
C1925      H1930   1.081       .  S
C1926      C1927   1.411       .  A
C1927      C1928   1.402       .  A
C1927      N1931   1.430       .  S
C1928      H1932   1.080       .  S
N1929      O1939   1.262       .  A
N1929      O1940   1.262       .  A
N1931      O1937   1.262       .  A
N1931      O1938   1.262       .  A
C1941      C1942   1.403       .  A
C1941      C1946   1.400       .  A
C1941      H1951   1.081       .  S
C1942      C1943   1.413       .  A
C1942      C1947   1.484       .  S
C1943      C1944   1.403       .  A
C1943      N1948   1.433       .  S
C1944      C1945   1.405       .  A
C1944      H1949   1.081       .  S
C1945      C1946   1.411       .  A
C1946      N1950   1.430       .  S
C1947      C1952   1.413       .  A
C1947      C1956   1.403       .  A
N1948      O1963   1.262       .  A
N1948      O1964   1.262       .  A
N1950      O1961   1.262       .  A
N1950      O1962   1.262       .  A
C1952      C1953   1.404       .  A
C1952      N1957   1.434       .  S
C1953      C1954   1.405       .  A
C1953      H1958   1.083       .  S
C1954      C1955   1.410       .  A
C1955      C1956   1.399       .  A
C1955      N1959   1.429       .  S
C1956      H1960   1.084       .  S
N1957      O1967   1.262       .  A
N1957      O1968   1.262       .  A
N1959      O1965   1.262       .  A
N1959      O1966   1.262       .  A
C1969      C1970   1.403       .  A
C1969      C1974   1.405       .  A
C1969      H1979   1.080       .  S
C1970      C1971   1.405       .  A
C1970      C1975   1.478       .  S
C1971      C1972   1.394       .  A
C1971      N1976   1.430       .  S
C1972      C1973   1.408       .  A
C1972      H1977   1.080       .  S
C1973      C1974   1.415       .  A
C1974      N1978   1.428       .  S
C1975      C1980   1.407       .  A
C1975      C1984   1.404       .  A
N1976      O1991   1.262       .  A
N1976      O1992   1.262       .  A
N1978      O1989   1.262       .  A
N1978      O1990   1.262       .  A
C1980      C1981   1.398       .  A
C1980      N1985   1.429       .  S
C1981      C1982   1.402       .  A
C1981      H1986   1.080       .  S
C1982      C1983   1.408       .  A
C1983      C1984   1.401       .  A
C1983      N1987   1.429       .  S
C1984      H1988   1.080       .  S
N1985      O1995   1.262       .  A
N1985      O1996   1.262       .  A
N1987      O1993   1.262       .  A
N1987      O1994   1.262       .  A
C1997      C1998   1.405       .  A
C1997      C2002   1.403       .  A
C1997      H2007   1.081       .  S
C1998      C1999   1.409       .  A
C1998      C2003   1.482       .  S
C1999      C2000   1.396       .  A
C1999      N2004   1.430       .  S
C2000      C2001   1.404       .  A
C2000      H2005   1.082       .  S
C2001      C2002   1.412       .  A
C2002      N2006   1.429       .  S
C2003      C2008   1.410       .  A
C2003      C2012   1.404       .  A
N2004      O2019   1.262       .  A
N2004      O2020   1.262       .  A
N2006      O2017   1.262       .  A
N2006      O2018   1.262       .  A
C2008      C2009   1.399       .  A
C2008      N2013   1.431       .  S
C2009      C2010   1.403       .  A
C2009      H2014   1.082       .  S
C2010      C2011   1.410       .  A
C2011      C2012   1.400       .  A
C2011      N2015   1.430       .  S
C2012      H2016   1.082       .  S
N2013      O2023   1.262       .  A
N2013      O2024   1.262       .  A
N2015      O2021   1.262       .  A
N2015      O2022   1.262       .  A
C2025      C2026   1.405       .  A
C2025      C2030   1.399       .  A
C2025      H2035   1.077       .  S
C2026      C2027   1.411       .  A
C2026      C2031   1.484       .  S
C2027      C2028   1.400       .  A
C2027      N2032   1.430       .  S
C2028      C2029   1.404       .  A
C2028      H2033   1.078       .  S
C2029      C2030   1.411       .  A
C2030      N2034   1.429       .  S
C2031      C2036   1.413       .  A
C2031      C2040   1.406       .  A
N2032      O2047   1.262       .  A
N2032      O2048   1.262       .  A
N2034      O2045   1.262       .  A
N2034      O2046   1.262       .  A
C2036      C2037   1.400       .  A
C2036      N2041   1.431       .  S
C2037      C2038   1.400       .  A
C2037      H2042   1.077       .  S
C2038      C2039   1.406       .  A
C2039      C2040   1.400       .  A
C2039      N2043   1.429       .  S
C2040      H2044   1.075       .  S
N2041      O2051   1.262       .  A
N2041      O2052   1.262       .  A
N2043      O2049   1.262       .  A
N2043      O2050   1.262       .  A
C2053      C2054   1.404       .  A
C2053      C2058   1.403       .  A
C2053      H2063   1.081       .  S
C2054      C2055   1.409       .  A
C2054      C2059   1.481       .  S
C2055      C2056   1.396       .  A
C2055      N2060   1.430       .  S
C2056      C2057   1.404       .  A
C2056      H2061   1.081       .  S
C2057      C2058   1.412       .  A
C2058      N2062   1.429       .  S
C2059      C2064   1.410       .  A
C2059      C2068   1.403   1_565  A
N2060      O2075   1.262       .  A
N2060      O2076   1.262       .  A
N2062      O2073   1.262       .  A
N2062      O2074   1.262       .  A
C2064      C2065   1.400   1_565  A
C2064      N2069   1.429       .  S
C2065      C2066   1.402       .  A
C2065      H2070   1.082       .  S
C2066      C2067   1.410       .  A
C2067      C2068   1.399       .  A
C2067      N2071   1.429       .  S
C2068      H2072   1.082       .  S
N2069      O2079   1.262       .  A
N2069      O2080   1.262       .  A
N2071      O2077   1.262       .  A
N2071      O2078   1.262       .  A
