geometry optimzed in LAMMPS
_audit_creation_date              2020-11-30 
_audit_creation_method            'lammps2cif' 
_symmetry_space_group_name_H-M    'P1' 
_symmetry_Int_Tables_number       1 
_symmetry_cell_setting            triclinic 
loop_ 
_symmetry_equiv_pos_as_xyz 
  x,y,z 
_cell_length_a                    25.61654986 
_cell_length_b                    25.24990354483101 
_cell_length_c                    22.989372952396455 
_cell_angle_alpha                 89.60671058264971 
_cell_angle_beta                  91.09902062315047 
_cell_angle_gamma                 89.17195833891068 
loop_ 
_atom_site_label 
_atom_site_type_symbol 
_atom_site_fract_x 
_atom_site_fract_y 
_atom_site_fract_z 
_atom_site_charge 
O1          O  0.44593424  0.44043202  0.07254480    -0.81400
O2          O  0.56073025  0.48374476  0.38509054    -0.81500
O3          O  0.44899179  0.43489600  0.46049167    -0.81500
O4          O  0.63194635  0.47583766  0.04880824    -0.81400
O5          O  0.45541402  0.47851929  0.37875864    -0.81500
O6          O  0.55643957  0.44120613  0.07442957    -0.81500
O7          O  0.56505413  0.43828190  0.46557008    -0.81400
O8          O  0.37165264  0.46988637  0.03069167    -0.81500
C9          C  0.39584412  0.43949254  0.06633644     1.08200
C10         C  0.57480817  0.44216886  0.41243426     1.08100
C11         C  0.44204885  0.43740409  0.40628258     1.08300
C12         C  0.60651502  0.44344653  0.07971856     1.08100
O13         O  0.55288350  0.54593114  0.12261412    -0.81400
O14         O  0.44909272  0.58897103  0.41290789    -0.81500
O15         O  0.40878717  0.56836757  0.03369069    -0.81500
O16         O  0.61687130  0.54012938  0.44781769    -0.81400
O17         O  0.55202738  0.59239678  0.42168878    -0.81500
O18         O  0.44865196  0.55014027  0.11470137    -0.81500
O19         O  0.58656763  0.57475138  0.04439354    -0.81400
O20         O  0.38997068  0.53087725  0.43355542    -0.81500
Co21       Co  0.50077269  0.49791014  0.08506518     1.51500
Co22       Co  0.50411457  0.53580739  0.40515939     1.51700
Co23       Co  0.43174634  0.50135847  0.50102021     1.51600
Co24       Co  0.57299288  0.50584643  0.00888244     1.51500
O25         O  0.50168418  0.52744316  0.99384525    -1.43400
C26         C  0.58201946  0.57802970  0.09782025     1.08200
C27         C  0.40242404  0.57475546  0.41149347     1.08300
C28         C  0.41580413  0.57761553  0.08617297     1.08200
C29         C  0.59997168  0.58180565  0.42221188     1.08200
O30         O  0.52912286  0.94749183  0.11675120    -0.81400
O31         O  0.52261272  0.06876242  0.39421310    -0.81500
O32         O  0.53344977  0.88846573  0.42626679    -0.81500
O33         O  0.52270094  0.12292867  0.05892785    -0.81400
O34         O  0.55459567  0.96528297  0.38840220    -0.81500
O35         O  0.55220924  0.04481838  0.08748857    -0.81500
O36         O  0.56730954  0.06469709  0.47391619    -0.81400
O37         O  0.56117873  0.90844216  0.03948160    -0.81500
C38         C  0.56586859  0.92131401  0.09231398     1.08200
C39         C  0.56367320  0.07983519  0.42171332     1.08100
C40         C  0.56410852  0.91661219  0.39701915     1.08300
C41         C  0.55574292  0.09560217  0.08906205     1.08100
O42         O  0.46264914  0.03586119  0.14868084    -0.81400
O43         O  0.44577466  0.93620296  0.37923221    -0.81500
O44         O  0.45595749  0.89142604  0.07399123    -0.81500
O45         O  0.45374270  0.10285558  0.46026696    -0.81400
O46         O  0.41849637  0.03644079  0.41241476    -0.81500
O47         O  0.41431242  0.96562107  0.07626236    -0.81500
O48         O  0.43140997  0.06844936  0.06626835    -0.81400
O49         O  0.42464043  0.89540496  0.45965645    -0.81500
Co50       Co  0.48324591  0.00408338  0.07585858     1.51500
Co51       Co  0.48557202  0.00025232  0.40139498     1.51700
Co52       Co  0.49380036  0.90277459  0.99911391     1.51600
Co53       Co  0.49953983  0.06058571  0.01839503     1.51500
O54         O  0.49052445  0.98474394  0.99020338    -1.43400
C55         C  0.42947384  0.06588255  0.12229548     1.08200
C56         C  0.41397965  0.90912073  0.40776193     1.08300
C57         C  0.41557074  0.91694687  0.08779673     1.08200
C58         C  0.41654433  0.08406089  0.42881352     1.08200
O59         O  0.88873761  0.54118959  0.07566231    -0.81400
O60         O  0.11418171  0.53055994  0.44286681    -0.81500
O61         O  0.06488299  0.52706516  0.10746183    -0.81500
O62         O  0.93999998  0.52962161  0.38481303    -0.81400
O63         O  0.05692560  0.57330053  0.02927286    -0.81500
O64         O  0.90579293  0.56768401  0.46148550    -0.81500
O65         O  0.03617660  0.55798941  0.41450559    -0.81400
O66         O  0.96433591  0.55857471  0.11719118    -0.81500
C67         C  0.91747241  0.57115612  0.10578478     1.08200
C68         C  0.08604922  0.56320393  0.41278631     1.08100
C69         C  0.07312316  0.56966342  0.08109600     1.08300
C70         C  0.91479359  0.56819146  0.40759724     1.08100
O71         O  0.88786985  0.45919548  0.43069075    -0.81400
O72         O  0.09777797  0.45764839  0.04186394    -0.81500
O73         O  0.93488219  0.44811999  0.12398688    -0.81500
O74         O  0.02964560  0.46573480  0.35357636    -0.81400
O75         O  0.06311007  0.43583517  0.43604419    -0.81500
O76         O  0.88995061  0.43051574  0.04437067    -0.81500
O77         O  0.96139110  0.41681816  0.42642838    -0.81400
O78         O  0.03275324  0.42101449  0.08826705    -0.81500
Co79       Co  0.89972533  0.49972269  0.00383659     1.51500
Co80       Co  0.05437612  0.50469040  0.48421265     1.51700
Co81       Co  0.99751213  0.48875926  0.10137366     1.51600
Co82       Co  0.99819535  0.48683893  0.42640980     1.51500
O83         O  0.98032287  0.49407660  0.01251039    -1.43400
C84         C  0.91304586  0.41843814  0.41617801     1.08200
C85         C  0.08000060  0.41997854  0.07369579     1.08300
C86         C  0.90429371  0.41855553  0.09581826     1.08200
C87         C  0.06077443  0.43362765  0.38008246     1.08200
C88         C  0.25669066  0.27159379  0.30778554     0.44200
H89         H  0.25252686  0.27850285  0.35510346    -0.04900
C90         C  0.26542424  0.25457045  0.19714133     0.44200
H91         H  0.26940614  0.24773321  0.14971293    -0.04900
C92         C  0.29990652  0.30411721  0.27972894    -0.18600
C93         C  0.27312244  0.21410613  0.29394435    -0.18300
C94         C  0.20673019  0.28660943  0.27183108    -0.18700
C95         C  0.30292035  0.29583583  0.22099510    -0.18700
C96         C  0.27866631  0.20510818  0.23483047    -0.18200
C97         C  0.21145970  0.27749287  0.21282810    -0.18600
C98         C  0.73908384  0.25054342  0.20508117     0.44200
H99         H  0.73509676  0.25105573  0.15745816    -0.04900
C100        C  0.74080539  0.24832994  0.31725089     0.44200
H101        H  0.74193663  0.24714482  0.36561127    -0.04900
C102        C  0.70666750  0.29452396  0.23255800    -0.18600
C103        C  0.71584694  0.19961713  0.22981073    -0.18300
C104        C  0.79471307  0.25998270  0.22941281    -0.18700
C105        C  0.70597686  0.29319227  0.29205380    -0.18700
C106        C  0.71722799  0.19781623  0.29002216    -0.18200
C107        C  0.79505196  0.26010759  0.29038477    -0.18600
C108        C  0.23591377  0.75165830  0.18645990     0.44200
H109        H  0.23438446  0.75293460  0.13813260    -0.04900
C110        C  0.23795361  0.75015086  0.29839620     0.44200
H111        H  0.23791158  0.74762503  0.34582778    -0.04900
C112        C  0.27798401  0.71392076  0.21186536    -0.18600
C113        C  0.25189235  0.80571737  0.21314092    -0.18300
C114        C  0.18465598  0.73040335  0.21331071    -0.18700
C115        C  0.27840357  0.71331956  0.27138672    -0.18700
C116        C  0.25151227  0.80556764  0.27398638    -0.18200
C117        C  0.18627787  0.72899538  0.27376872    -0.18600
C118        C  0.75931920  0.75913297  0.30714814     0.44200
H119        H  0.76234427  0.75940762  0.35545991    -0.04900
C120        C  0.75285335  0.76018212  0.19515943     0.44200
H121        H  0.75153355  0.75883343  0.14760437    -0.04900
C122        C  0.72079767  0.71918653  0.28306744    -0.18600
C123        C  0.73754101  0.81250959  0.28177153    -0.18300
C124        C  0.81067720  0.74098669  0.27848320    -0.18700
C125        C  0.71676514  0.71943901  0.22331688    -0.18700
C126        C  0.73564689  0.81424156  0.22121515    -0.18200
C127        C  0.80764569  0.74303150  0.21825925    -0.18600
C128        C  0.09710324  0.66616150  0.09700899    -0.14700
C129        C  0.10275393  0.61206645  0.11150187     0.07500
C130        C  0.13611961  0.59773299  0.15844185    -0.14700
C131        C  0.16253649  0.63603267  0.19054461    -0.14700
C132        C  0.15497449  0.69025319  0.17848989     0.07500
C133        C  0.12302092  0.70495986  0.13033342    -0.14700
H134        H  0.07186207  0.67845074  0.06091148     0.11500
H135        H  0.14218521  0.55647422  0.17026636     0.11500
H136        H  0.18898838  0.62309007  0.22522156     0.11500
H137        H  0.11788960  0.74637398  0.11882983     0.11500
C138        C  0.16156665  0.61993355  0.38783774    -0.14700
C139        C  0.10925772  0.60748248  0.37875440     0.07500
C140        C  0.08018154  0.63732115  0.33664601    -0.14700
C141        C  0.10392113  0.67746470  0.30330806    -0.14700
C142        C  0.15726812  0.68904428  0.31145367     0.07500
C143        C  0.18472360  0.65991590  0.35564476    -0.14700
H144        H  0.18509132  0.59853344  0.42013341     0.11500
H145        H  0.03933421  0.62895791  0.32869119     0.11500
H146        H  0.08078378  0.69887888  0.27074146     0.11500
H147        H  0.22511585  0.66628604  0.36591665     0.11500
C148        C  0.10422548  0.34391893  0.37334980    -0.14700
C149        C  0.09381617  0.39438559  0.34898677     0.07500
C150        C  0.12043883  0.40917152  0.29875124    -0.14700
C151        C  0.15743733  0.37476430  0.27426797    -0.14700
C152        C  0.16662343  0.32343748  0.29735964     0.07500
C153        C  0.13983793  0.30872333  0.34753498    -0.14700
H154        H  0.08503849  0.33186080  0.41275166     0.11500
H155        H  0.11463301  0.44840788  0.28016798     0.11500
H156        H  0.17948929  0.38876671  0.23773109     0.11500
H157        H  0.14696166  0.27012657  0.36718902     0.11500
C158        C  0.16784346  0.37417703  0.09212639    -0.14700
C159        C  0.11371489  0.37672216  0.09990113     0.07500
C160        C  0.09143579  0.33930713  0.13787971    -0.14700
C161        C  0.12268757  0.30390962  0.17097730    -0.14700
C162        C  0.17721696  0.30468735  0.16720988     0.07500
C163        C  0.19902310  0.33790236  0.12458724    -0.14700
H164        H  0.18634305  0.40149128  0.06271043     0.11500
H165        H  0.04970734  0.33907159  0.14453910     0.11500
H166        H  0.10443342  0.27821881  0.20230205     0.11500
H167        H  0.24053739  0.33823550  0.11830834     0.11500
C168        C  0.90275874  0.35452539  0.18072093    -0.14700
C169        C  0.88351971  0.37063465  0.12552024     0.07500
C170        C  0.84518739  0.33956454  0.09903564    -0.14700
C171        C  0.82166551  0.29860655  0.13006779    -0.14700
C172        C  0.83346345  0.28901282  0.18998954     0.07500
C173        C  0.87950998  0.31292537  0.21130441    -0.14700
H174        H  0.93542226  0.37462088  0.20089110     0.11500
H175        H  0.83204215  0.34790187  0.05480259     0.11500
H176        H  0.79290920  0.27665048  0.10600964     0.11500
H177        H  0.89721422  0.30141203  0.25237636     0.11500
C178        C  0.89613773  0.32206585  0.39308991    -0.14700
C179        C  0.88554102  0.37636392  0.38371410     0.07500
C180        C  0.84539235  0.39140568  0.34441885    -0.14700
C181        C  0.81669538  0.35342516  0.31473491    -0.14700
C182        C  0.82676027  0.29913702  0.32378908     0.07500
C183        C  0.86627280  0.28356642  0.36393139    -0.14700
H184        H  0.92650488  0.30955307  0.42382279     0.11500
H185        H  0.83652263  0.43288253  0.33609144     0.11500
H186        H  0.78736884  0.36651840  0.28321672     0.11500
H187        H  0.87443403  0.24194523  0.37191082     0.11500
C188        C  0.83556261  0.64366585  0.29237514    -0.14700
C189        C  0.84099545  0.69702932  0.30966032     0.07500
C190        C  0.87095472  0.70714080  0.36003377    -0.14700
C191        C  0.89597113  0.66535617  0.39105036    -0.14700
C192        C  0.89247445  0.61261913  0.37176360     0.07500
C193        C  0.86221509  0.60233363  0.32183769    -0.14700
H194        H  0.80983645  0.63365041  0.25635756     0.11500
H195        H  0.87429000  0.74724600  0.37587298     0.11500
H196        H  0.91794471  0.67417570  0.43044128     0.11500
H197        H  0.85702781  0.56200072  0.30733238     0.11500
C198        C  0.92043257  0.65428483  0.16760927    -0.14700
C199        C  0.89360340  0.62023019  0.12948930     0.07500
C200        C  0.84185671  0.63294170  0.11357973    -0.14700
C201        C  0.81586245  0.67521961  0.13876263    -0.14700
C202        C  0.84060112  0.70721512  0.18074836     0.07500
C203        C  0.89429969  0.69787362  0.19244847    -0.14700
H204        H  0.96085715  0.64625530  0.17971185     0.11500
H205        H  0.82016012  0.60866734  0.08318663     0.11500
H206        H  0.77498705  0.67942292  0.12753661     0.11500
H207        H  0.91497006  0.72197390  0.22384287     0.11500
C208        C  0.65764396  0.10891076  0.40702559    -0.14700
C209        C  0.60412984  0.11175383  0.39187349     0.07500
C210        C  0.58854245  0.14421740  0.34445921    -0.14700
C211        C  0.62503278  0.17210694  0.31235027    -0.14700
C212        C  0.67876504  0.16703525  0.32496070     0.07500
C213        C  0.69462072  0.13632248  0.37376812    -0.14700
H214        H  0.67094330  0.08455350  0.44347240     0.11500
H215        H  0.54763865  0.14835289  0.33217290     0.11500
H216        H  0.61101914  0.19794444  0.27749331     0.11500
H217        H  0.73563667  0.13315649  0.38576049     0.11500
C218        C  0.64486245  0.19942195  0.15202752    -0.14700
C219        C  0.67692924  0.17052445  0.19203757     0.07500
C220        C  0.66968616  0.11557496  0.19627710    -0.14700
C221        C  0.63093147  0.09084687  0.16211230    -0.14700
C222        C  0.59843251  0.12064117  0.12334564     0.07500
C223        C  0.60627849  0.17507315  0.11862242    -0.14700
H224        H  0.64833064  0.24152109  0.14677234     0.11500
H225        H  0.69355788  0.09198252  0.22628554     0.11500
H226        H  0.62584593  0.04854997  0.16671535     0.11500
H227        H  0.58223846  0.19921666  0.08925484     0.11500
C228        C  0.33863601  0.10499110  0.13017772    -0.14700
C229        C  0.38912554  0.09667911  0.15410970     0.07500
C230        C  0.40234754  0.12231820  0.20616179    -0.14700
C231        C  0.36664908  0.15679402  0.23261104    -0.14700
C232        C  0.31540977  0.16415805  0.20991589     0.07500
C233        C  0.30209793  0.13786057  0.15807424    -0.14700
H234        H  0.32759408  0.08639068  0.08953969     0.11500
H235        H  0.44142309  0.11808907  0.22463240     0.11500
H236        H  0.38014933  0.17921339  0.26968770     0.11500
H237        H  0.26375741  0.14393283  0.13827416     0.11500
C238        C  0.37283749  0.17297017  0.41074924    -0.14700
C239        C  0.37260057  0.11769145  0.40562501     0.07500
C240        C  0.33239757  0.09442717  0.37204085    -0.14700
C241        C  0.29682798  0.12573331  0.33954468    -0.14700
C242        C  0.30051550  0.18103194  0.33988519     0.07500
C243        C  0.33690961  0.20429296  0.37854589    -0.14700
H244        H  0.40270822  0.19213875  0.43670400     0.11500
H245        H  0.33025691  0.05180659  0.36797059     0.11500
H246        H  0.26880817  0.10672405  0.31095966     0.11500
H247        H  0.34065873  0.24676031  0.38065348     0.11500
C248        C  0.64623804  0.86467674  0.09674776    -0.14700
C249        C  0.61404319  0.90203658  0.12405780     0.07500
C250        C  0.63034309  0.92056725  0.17879252    -0.14700
C251        C  0.67467955  0.89780658  0.20732473    -0.14700
C252        C  0.70079578  0.85263290  0.18452861     0.07500
C253        C  0.68904456  0.84146310  0.12567977    -0.14700
H254        H  0.63760672  0.85167158  0.05284450     0.11500
H255        H  0.60896717  0.95231640  0.19953236     0.11500
H256        H  0.68698824  0.91519755  0.24781278     0.11500
H257        H  0.71094325  0.81362222  0.10048145     0.11500
C258        C  0.60097558  0.84696354  0.33302201    -0.14700
C259        C  0.60941495  0.89044484  0.36927666     0.07500
C260        C  0.66106804  0.90678044  0.38008615    -0.14700
C261        C  0.70349967  0.88001799  0.35445789    -0.14700
C262        C  0.69453723  0.83800968  0.31580280     0.07500
C263        C  0.64278793  0.82175846  0.30598443    -0.14700
H264        H  0.56167177  0.83356640  0.32404578     0.11500
H265        H  0.66852382  0.93983585  0.40868949     0.11500
H266        H  0.74287490  0.89342830  0.36276722     0.11500
H267        H  0.63447837  0.79107093  0.27487656     0.11500
C268        C  0.33434531  0.85279839  0.40415939    -0.14700
C269        C  0.36557420  0.89067120  0.37808781     0.07500
C270        C  0.34957659  0.91106814  0.32339278    -0.14700
C271        C  0.30738846  0.88893331  0.29269041    -0.14700
C272        C  0.28269044  0.84308270  0.31357816     0.07500
C273        C  0.29292994  0.83037624  0.37310437    -0.14700
H274        H  0.34298311  0.83890379  0.44804666     0.11500
H275        H  0.37020260  0.94359244  0.30379042     0.11500
H276        H  0.29583563  0.90729660  0.25196736     0.11500
H277        H  0.27116823  0.80190300  0.39716225     0.11500
C278        C  0.38485929  0.84720522  0.15695367    -0.14700
C279        C  0.37259726  0.88992110  0.11938686     0.07500
C280        C  0.31956620  0.90489747  0.11198878    -0.14700
C281        C  0.27993879  0.87716163  0.14098233    -0.14700
C282        C  0.29272568  0.83526261  0.17971861     0.07500
C283        C  0.34577169  0.82085921  0.18707192    -0.14700
H284        H  0.42512487  0.83471531  0.16401864     0.11500
H285        H  0.30872783  0.93737612  0.08300395     0.11500
H286        H  0.23950900  0.88908490  0.13415874     0.11500
H287        H  0.35718676  0.78961269  0.21726545     0.11500
C288        C  0.37009514  0.66378762  0.38761926    -0.14700
C289        C  0.36479851  0.60892900  0.38190460     0.07500
C290        C  0.33048887  0.58804685  0.34027095    -0.14700
C291        C  0.30316315  0.62222945  0.30265753    -0.14700
C292        C  0.30945629  0.67708602  0.30780850     0.07500
C293        C  0.34220590  0.69777113  0.35083638    -0.14700
H294        H  0.39717716  0.68015078  0.41929157     0.11500
H295        H  0.32704971  0.54562379  0.33493748     0.11500
H296        H  0.27705956  0.60618320  0.26986756     0.11500
H297        H  0.34741028  0.74000469  0.35469276     0.11500
C298        C  0.40111345  0.64338703  0.16422444    -0.14700
C299        C  0.38309418  0.61746364  0.11440701     0.07500
C300        C  0.33180741  0.62699253  0.09365101    -0.14700
C301        C  0.29790623  0.65948654  0.12458031    -0.14700
C302        C  0.31514041  0.68346448  0.17606814     0.07500
C303        C  0.36770766  0.67703529  0.19411342    -0.14700
H304        H  0.44079049  0.63720993  0.18029303     0.13400
H305        H  0.31716883  0.60723461  0.05510274     0.11500
H306        H  0.25777604  0.66406796  0.10949851     0.11500
H307        H  0.38286498  0.69706246  0.23212294     0.11500
C308        C  0.60842910  0.64732438  0.34474044    -0.14700
C309        C  0.63282318  0.61665160  0.38885719     0.07500
C310        C  0.68648480  0.62086843  0.39981929    -0.14700
C311        C  0.71534018  0.65591236  0.36649249    -0.14700
C312        C  0.69064284  0.68544802  0.32151745     0.07500
C313        C  0.63695428  0.68160636  0.31177309    -0.14700
H314        H  0.56702970  0.64438939  0.33492028     0.11500
H315        H  0.70567274  0.59770523  0.43404176     0.11500
H316        H  0.75680962  0.65906886  0.37506279     0.11500
H317        H  0.61705692  0.70385265  0.27742044     0.11500
C318        C  0.64726768  0.59509640  0.17584149    -0.14700
C319        C  0.61462007  0.61473440  0.13084610     0.07500
C320        C  0.61804092  0.66786044  0.11360293    -0.14700
C321        C  0.65187686  0.70174649  0.14314534    -0.14700
C322        C  0.68382981  0.68256849  0.18904766     0.07500
C323        C  0.68263824  0.62842921  0.20363730    -0.14700
H324        H  0.64651887  0.55361063  0.18816863     0.11500
H325        H  0.59395739  0.68321170  0.07789511     0.11500
H326        H  0.65209931  0.74303151  0.13094537     0.11500
H327        H  0.70834699  0.61214955  0.23737452     0.11500
C328        C  0.61068864  0.34955754  0.40080000    -0.14700
C329        C  0.60896358  0.40317734  0.38405351     0.07500
C330        C  0.64275752  0.42098299  0.34110557    -0.14700
C331        C  0.67652742  0.38581359  0.31407232    -0.14700
C332        C  0.67602699  0.33152368  0.32765484     0.07500
C333        C  0.64381980  0.31379646  0.37235509    -0.14700
H334        H  0.58558021  0.33522310  0.43466328     0.11500
H335        H  0.64355507  0.46246706  0.32879124     0.11500
H336        H  0.70223060  0.40124769  0.28154554     0.11500
H337        H  0.64306521  0.27218070  0.38393884     0.11500
C338        C  0.62657248  0.33656669  0.19181903    -0.14700
C339        C  0.68086570  0.33457157  0.19609812     0.07500
C340        C  0.71112863  0.36938868  0.16382212    -0.14700
C341        C  0.68719867  0.40502278  0.12524106    -0.14700
C342        C  0.63277371  0.40584513  0.11903023     0.07500
C343        C  0.60254112  0.37190910  0.15317368    -0.14700
H344        H  0.60312334  0.30992287  0.21724225     0.11500
H345        H  0.75308320  0.36953615  0.16922771     0.11500
H346        H  0.71107718  0.43179321  0.10055853     0.11500
H347        H  0.56029526  0.37249832  0.15003930     0.11500
C348        C  0.42490604  0.37213174  0.32782738    -0.14700
C349        C  0.40844262  0.39892522  0.37730683     0.07500
C350        C  0.35669039  0.39408610  0.39540190    -0.14700
C351        C  0.32122042  0.36395848  0.36336892    -0.14700
C352        C  0.33728892  0.33720600  0.31341782     0.07500
C353        C  0.38999215  0.34030267  0.29706894    -0.14700
H354        H  0.46465144  0.37576481  0.31318864     0.11500
H355        H  0.34309184  0.41557357  0.43292037     0.11500
H356        H  0.28107549  0.36259555  0.37706878     0.11500
H357        H  0.40436507  0.31821559  0.26038732     0.11500
C358        C  0.38133596  0.34769265  0.09786782    -0.14700
C359        C  0.36796368  0.40159877  0.10032296     0.07500
C360        C  0.33460698  0.42072467  0.14287171    -0.14700
C361        C  0.31523864  0.38612947  0.18383326    -0.14700
C362        C  0.32824936  0.33210709  0.18141261     0.07500
C363        C  0.36047585  0.31262958  0.13780209    -0.14700
H364        H  0.40818079  0.33313290  0.06561211     0.11500
H365        H  0.32532729  0.46264251  0.14573142     0.11500
H366        H  0.28917365  0.40115563  0.21662593     0.11500
H367        H  0.36995592  0.27074513  0.13542106     0.11500
O368        O  0.44593422  0.44043180  0.57254436    -0.81400
O369        O  0.56073008  0.48374490  0.88509085    -0.81500
O370        O  0.44899183  0.43489618  0.96049195    -0.81500
O371        O  0.63194618  0.47583750  0.54880815    -0.81400
O372        O  0.45541386  0.47851949  0.87875891    -0.81500
O373        O  0.55643944  0.44120584  0.57442915    -0.81500
O374        O  0.56505416  0.43828198  0.96557040    -0.81400
O375        O  0.37165258  0.46988607  0.53069139    -0.81500
C376        C  0.39584411  0.43949230  0.56633618     1.08200
C377        C  0.57480802  0.44216898  0.91243453     1.08100
C378        C  0.44204885  0.43740425  0.90628286     1.08300
C379        C  0.60651487  0.44344630  0.57971835     1.08100
O380        O  0.55288348  0.54593070  0.62261411    -0.81400
O381        O  0.44909271  0.58897132  0.91290805    -0.81500
O382        O  0.40878723  0.56836729  0.53369056    -0.81500
O383        O  0.61687133  0.54012940  0.94781781    -0.81400
O384        O  0.55202740  0.59239683  0.92168889    -0.81500
O385        O  0.44865202  0.55014001  0.61470125    -0.81500
O386        O  0.58656738  0.57475125  0.54439356    -0.81400
O387        O  0.38997070  0.53087750  0.93355552    -0.81500
Co388      Co  0.50077264  0.49790986  0.58506494     1.51500
Co389      Co  0.50411448  0.53580758  0.90515958     1.51700
Co390      Co  0.43174637  0.50135872  0.00102041     1.51600
Co391      Co  0.57299278  0.50584632  0.50888224     1.51500
O392        O  0.50168413  0.52744301  0.49384504    -1.43400
C393        C  0.58201931  0.57802940  0.59782031     1.08200
C394        C  0.40242406  0.57475575  0.91149356     1.08300
C395        C  0.41580422  0.57761527  0.58617286     1.08200
C396        C  0.59997168  0.58180561  0.92221187     1.08200
O397        O  0.52912318  0.94749204  0.61675111    -0.81400
O398        O  0.52261261  0.06876252  0.89421331    -0.81500
O399        O  0.53344998  0.88846555  0.92626682    -0.81500
O400        O  0.52270146  0.12292875  0.55892747    -0.81400
O401        O  0.55459562  0.96528292  0.88840226    -0.81500
O402        O  0.55220954  0.04481840  0.58748829    -0.81500
O403        O  0.56730926  0.06469719  0.97391651    -0.81400
O404        O  0.56117884  0.90844230  0.53948144    -0.81500
C405        C  0.56586883  0.92131418  0.59231382     1.08200
C406        C  0.56367306  0.07983526  0.92171361     1.08100
C407        C  0.56410862  0.91661212  0.89701916     1.08300
C408        C  0.55574336  0.09560218  0.58906169     1.08100
O409        O  0.46264939  0.03586140  0.64868079    -0.81400
O410        O  0.44577462  0.93620301  0.87923215    -0.81500
O411        O  0.45595757  0.89142640  0.57399132    -0.81500
O412        O  0.45374247  0.10285544  0.96026718    -0.81400
O413        O  0.41849627  0.03644070  0.91241477    -0.81500
O414        O  0.41431249  0.96562139  0.57626225    -0.81500
O415        O  0.43141042  0.06844970  0.56626824    -0.81400
O416        O  0.42464056  0.89540466  0.95965626    -0.81500
Co417      Co  0.48324610  0.00408355  0.57585849     1.51500
Co418      Co  0.48557197  0.00025232  0.90139504     1.51700
Co419      Co  0.49380034  0.90277480  0.49911394     1.51600
Co420      Co  0.49954016  0.06058583  0.51839480     1.51500
O421        O  0.49052453  0.98474409  0.49020332    -1.43400
C422        C  0.42947423  0.06588289  0.62229538     1.08200
C423        C  0.41397973  0.90912056  0.90776178     1.08300
C424        C  0.41557081  0.91694721  0.58779674     1.08200
C425        C  0.41654420  0.08406077  0.92881362     1.08200
O426        O  0.88873783  0.54118934  0.57566236    -0.81400
O427        O  0.11418177  0.53055998  0.94286691    -0.81500
O428        O  0.06488319  0.52706503  0.60746171    -0.81500
O429        O  0.93999998  0.52962177  0.88481306    -0.81400
O430        O  0.05692540  0.57330048  0.52927286    -0.81500
O431        O  0.90579297  0.56768419  0.96148555    -0.81500
O432        O  0.03617670  0.55798934  0.91450535    -0.81400
O433        O  0.96433621  0.55857473  0.61719081    -0.81500
C434        C  0.91747264  0.57115604  0.60578453     1.08200
C435        C  0.08604935  0.56320385  0.91278620     1.08100
C436        C  0.07312321  0.56966332  0.58109592     1.08300
C437        C  0.91479366  0.56819165  0.90759729     1.08100
O438        O  0.88786981  0.45919571  0.93069072    -0.81400
O439        O  0.09777793  0.45764821  0.54186374    -0.81500
O440        O  0.93488224  0.44812008  0.62398695    -0.81500
O441        O  0.02964551  0.46573461  0.85357645    -0.81400
O442        O  0.06311012  0.43583517  0.93604431    -0.81500
O443        O  0.88995069  0.43051569  0.54437075    -0.81500
O444        O  0.96139099  0.41681824  0.92642874    -0.81400
O445        O  0.03275332  0.42101436  0.58826713    -0.81500
Co446      Co  0.89972539  0.49972253  0.50383659     1.51500
Co447      Co  0.05437619  0.50469047  0.98421272     1.51700
Co448      Co  0.99751228  0.48875918  0.60137361     1.51600
Co449      Co  0.99819532  0.48683897  0.92640984     1.51500
O450        O  0.98032291  0.49407634  0.51251037    -1.43400
C451        C  0.91304579  0.41843832  0.91617813     1.08200
C452        C  0.08000065  0.41997841  0.57369574     1.08300
C453        C  0.90429375  0.41855557  0.59581836     1.08200
C454        C  0.06077443  0.43362756  0.88008258     1.08200
C455        C  0.25669077  0.27159386  0.80778575     0.44200
H456        H  0.25252701  0.27850287  0.85510359    -0.04900
C457        C  0.26542437  0.25457055  0.69714146     0.44200
H458        H  0.26940626  0.24773335  0.64971314    -0.04900
C459        C  0.29990662  0.30411729  0.77972913    -0.18600
C460        C  0.27312259  0.21410620  0.79394446    -0.18300
C461        C  0.20673031  0.28660953  0.77183123    -0.18700
C462        C  0.30292045  0.29583590  0.72099534    -0.18700
C463        C  0.27866649  0.20510828  0.73483060    -0.18200
C464        C  0.21145982  0.27749298  0.71282828    -0.18600
C465        C  0.73908371  0.25054344  0.70508137     0.44200
H466        H  0.73509669  0.25105574  0.65745830    -0.04900
C467        C  0.74080514  0.24833005  0.81725108     0.44200
H468        H  0.74193633  0.24714500  0.86561143    -0.04900
C469        C  0.70666720  0.29452388  0.73255812    -0.18600
C470        C  0.71584690  0.19961713  0.72981086    -0.18300
C471        C  0.79471288  0.25998287  0.72941306    -0.18700
C472        C  0.70597657  0.29319232  0.79205392    -0.18700
C473        C  0.71722788  0.19781624  0.79002230    -0.18200
C474        C  0.79505172  0.26010777  0.79038502    -0.18600
C475        C  0.23591391  0.75165826  0.68645962     0.44200
H476        H  0.23438459  0.75293463  0.63813232    -0.04900
C477        C  0.23795376  0.75015079  0.79839593     0.44200
H478        H  0.23791173  0.74762482  0.84582748    -0.04900
C479        C  0.27798417  0.71392074  0.71186502    -0.18600
C480        C  0.25189246  0.80571733  0.71314064    -0.18300
C481        C  0.18465614  0.73040326  0.71331045    -0.18700
C482        C  0.27840375  0.71331956  0.77138637    -0.18700
C483        C  0.25151238  0.80556761  0.77398610    -0.18200
C484        C  0.18627805  0.72899523  0.77376846    -0.18600
C485        C  0.75931914  0.75913281  0.80714791     0.44200
H486        H  0.76234418  0.75940753  0.85545974    -0.04900
C487        C  0.75285335  0.76018181  0.69515925     0.44200
H488        H  0.75153361  0.75883311  0.64760416    -0.04900
C489        C  0.72079759  0.71918637  0.78306732    -0.18600
C490        C  0.73754100  0.81250942  0.78177122    -0.18300
C491        C  0.81067713  0.74098647  0.77848299    -0.18700
C492        C  0.71676509  0.71943878  0.72331675    -0.18700
C493        C  0.73564694  0.81424129  0.72121485    -0.18200
C494        C  0.80764568  0.74303122  0.71825906    -0.18600
C495        C  0.09710306  0.66616145  0.59700904    -0.14700
C496        C  0.10275403  0.61206639  0.61150166     0.07500
C497        C  0.13612003  0.59773290  0.65844139    -0.14700
C498        C  0.16253691  0.63603262  0.69054412    -0.14700
C499        C  0.15497470  0.69025311  0.67848960     0.07500
C500        C  0.12302085  0.70495983  0.63033335    -0.14700
H501        H  0.07186154  0.67845074  0.56091174     0.11500
H502        H  0.14218580  0.55647415  0.67026567     0.11500
H503        H  0.18898903  0.62309006  0.72522095     0.11500
H504        H  0.11788940  0.74637394  0.61882993     0.11500
C505        C  0.16156689  0.61993327  0.88783743    -0.14700
C506        C  0.10925790  0.60748227  0.87875413     0.07500
C507        C  0.08018177  0.63732097  0.83664580    -0.14700
C508        C  0.10392129  0.67746456  0.80330788    -0.14700
C509        C  0.15726833  0.68904408  0.81145341     0.07500
C510        C  0.18472383  0.65991568  0.85564447    -0.14700
H511        H  0.18509152  0.59853320  0.92013308     0.11500
H512        H  0.03933430  0.62895774  0.82869103     0.11500
H513        H  0.08078393  0.69887887  0.77074140     0.11500
H514        H  0.22511608  0.66628577  0.86591635     0.11500
C515        C  0.10422589  0.34391905  0.87335018    -0.14700
C516        C  0.09381622  0.39438556  0.84898695     0.07500
C517        C  0.12043870  0.40917145  0.79875129    -0.14700
C518        C  0.15743728  0.37476437  0.77426807    -0.14700
C519        C  0.16662361  0.32343761  0.79735984     0.07500
C520        C  0.13983837  0.30872353  0.84753538    -0.14700
H521        H  0.08503907  0.33186093  0.91275225     0.11500
H522        H  0.11463263  0.44840781  0.78016787     0.11500
H523        H  0.17948915  0.38876685  0.73773106     0.11500
H524        H  0.14696230  0.27012682  0.86718950     0.11500
C525        C  0.16784357  0.37417706  0.59212649    -0.14700
C526        C  0.11371499  0.37672213  0.59990118     0.07500
C527        C  0.09143589  0.33930709  0.63787971    -0.14700
C528        C  0.12268766  0.30390968  0.67097747    -0.14700
C529        C  0.17721707  0.30468741  0.66721001     0.07500
C530        C  0.19902319  0.33790231  0.62458726    -0.14700
H531        H  0.18634316  0.40149133  0.56271058     0.11500
H532        H  0.04970741  0.33907147  0.64453898     0.11500
H533        H  0.10443354  0.27821898  0.70230225     0.11500
H534        H  0.24053748  0.33823538  0.61830822     0.11500
C535        C  0.90275867  0.35452544  0.68072106    -0.14700
C536        C  0.88351967  0.37063475  0.62552041     0.07500
C537        C  0.84518718  0.33956476  0.59903590    -0.14700
C538        C  0.82166526  0.29860682  0.63006804    -0.14700
C539        C  0.83346322  0.28901303  0.68998979     0.07500
C540        C  0.87950981  0.31292554  0.71130463    -0.14700
H541        H  0.93542230  0.37462093  0.70089119     0.11500
H542        H  0.83204188  0.34790212  0.55480285     0.11500
H543        H  0.79290896  0.27665076  0.60600984     0.11500
H544        H  0.89721399  0.30141222  0.75237663     0.11500
C545        C  0.89613746  0.32206603  0.89309029    -0.14700
C546        C  0.88554095  0.37636409  0.88371422     0.07500
C547        C  0.84539229  0.39140586  0.84441895    -0.14700
C548        C  0.81669528  0.35342531  0.81473506    -0.14700
C549        C  0.82676006  0.29913718  0.82378938     0.07500
C550        C  0.86627246  0.28356659  0.86393187    -0.14700
H551        H  0.92650449  0.30955326  0.92382331     0.11500
H552        H  0.83652257  0.43288264  0.83609154     0.11500
H553        H  0.78736878  0.36651855  0.78321682     0.11500
H554        H  0.87443360  0.24194540  0.87191150     0.11500
C555        C  0.83556285  0.64366572  0.79237495    -0.14700
C556        C  0.84099547  0.69702920  0.80966006     0.07500
C557        C  0.87095465  0.70714087  0.86003352    -0.14700
C558        C  0.89597095  0.66535634  0.89105036    -0.14700
C559        C  0.89247451  0.61261929  0.87176364     0.07500
C560        C  0.86221539  0.60233361  0.82183756    -0.14700
H561        H  0.80983670  0.63365011  0.75635730     0.11500
H562        H  0.87428980  0.74724612  0.87587257     0.11500
H563        H  0.91794425  0.67417601  0.93044145     0.11500
H564        H  0.85702837  0.56200070  0.80733233     0.11500
C565        C  0.92043272  0.65428475  0.66760894    -0.14700
C566        C  0.89360363  0.62023008  0.62948907     0.07500
C567        C  0.84185682  0.63294141  0.61357968    -0.14700
C568        C  0.81586254  0.67521929  0.63876262    -0.14700
C569        C  0.84060118  0.70721486  0.68074822     0.07500
C570        C  0.89429985  0.69787348  0.69244829    -0.14700
H571        H  0.96085745  0.64625523  0.67971144     0.11500
H572        H  0.82016023  0.60866700  0.58318669     0.11500
H573        H  0.77498710  0.67942251  0.62753667     0.11500
H574        H  0.91497019  0.72197371  0.72384255     0.11500
C575        C  0.65764394  0.10891105  0.90702615    -0.14700
C576        C  0.60412981  0.11175386  0.89187379     0.07500
C577        C  0.58854248  0.14421716  0.84445934    -0.14700
C578        C  0.62503276  0.17210666  0.81235029    -0.14700
C579        C  0.67876502  0.16703513  0.82496085     0.07500
C580        C  0.69462068  0.13632269  0.87376848    -0.14700
H581        H  0.67094327  0.08455417  0.94347310     0.11500
H582        H  0.54763867  0.14835257  0.83217292     0.11500
H583        H  0.61101909  0.19794398  0.77749334     0.11500
H584        H  0.73563665  0.13315689  0.88576094     0.11500
C585        C  0.64486283  0.19942185  0.65202722    -0.14700
C586        C  0.67692936  0.17052441  0.69203756     0.07500
C587        C  0.66968620  0.11557493  0.69627724    -0.14700
C588        C  0.63093162  0.09084688  0.66211227    -0.14700
C589        C  0.59843292  0.12064108  0.62334534     0.07500
C590        C  0.60627899  0.17507306  0.61862198    -0.14700
H591        H  0.64833108  0.24152099  0.64677192     0.11500
H592        H  0.69355772  0.09198259  0.72628585     0.11500
H593        H  0.62584594  0.04854990  0.66671550     0.11500
H594        H  0.58223908  0.19921651  0.58925425     0.11500
C595        C  0.33863646  0.10499171  0.63017743    -0.14700
C596        C  0.38912589  0.09667949  0.65410955     0.07500
C597        C  0.40234771  0.12231817  0.70616193    -0.14700
C598        C  0.36664921  0.15679389  0.73261132    -0.14700
C599        C  0.31541000  0.16415818  0.70991594     0.07500
C600        C  0.30209829  0.13786103  0.65807403    -0.14700
H601        H  0.32759465  0.08639153  0.58953916     0.11500
H602        H  0.44142319  0.11808881  0.72463272     0.11500
H603        H  0.38014937  0.17921301  0.76968813     0.11500
H604        H  0.26375789  0.14393346  0.63827386     0.11500
C605        C  0.37283753  0.17297002  0.91074933    -0.14700
C606        C  0.37260052  0.11769133  0.90562504     0.07500
C607        C  0.33239757  0.09442714  0.87204079    -0.14700
C608        C  0.29682801  0.12573330  0.83954468    -0.14700
C609        C  0.30051559  0.18103194  0.83988529     0.07500
C610        C  0.33690971  0.20429292  0.87854602    -0.14700
H611        H  0.40270828  0.19213848  0.93670421     0.11500
H612        H  0.33025690  0.05180648  0.86797044     0.11500
H613        H  0.26880820  0.10672413  0.81095962     0.11500
H614        H  0.34065884  0.24676018  0.88065367     0.11500
C615        C  0.64623802  0.86467647  0.59674749    -0.14700
C616        C  0.61404345  0.90203657  0.62405749     0.07500
C617        C  0.63034342  0.92056726  0.67879219    -0.14700
C618        C  0.67467982  0.89780637  0.70732437    -0.14700
C619        C  0.70079588  0.85263261  0.68452826     0.07500
C620        C  0.68904449  0.84146270  0.62567950    -0.14700
H621        H  0.63760655  0.85167122  0.55284433     0.11500
H622        H  0.60896774  0.95231645  0.69953192     0.11500
H623        H  0.68698860  0.91519737  0.74781234     0.11500
H624        H  0.71094301  0.81362160  0.60048121     0.11500
C625        C  0.60097563  0.84696370  0.83302167    -0.14700
C626        C  0.60941507  0.89044487  0.86927649     0.07500
C627        C  0.66106822  0.90678026  0.88008608    -0.14700
C628        C  0.70349984  0.88001783  0.85445764    -0.14700
C629        C  0.69453725  0.83800964  0.81580241     0.07500
C630        C  0.64278791  0.82175854  0.80598401    -0.14700
H631        H  0.56167179  0.83356657  0.82404551     0.11500
H632        H  0.66852413  0.93983545  0.90868970     0.11500
H633        H  0.74287504  0.89342793  0.86276704     0.11500
H634        H  0.63447824  0.79107101  0.77487628     0.11500
C635        C  0.33434520  0.85279841  0.90415916    -0.14700
C636        C  0.36557432  0.89067101  0.87808762     0.07500
C637        C  0.34957688  0.91106792  0.82339250    -0.14700
C638        C  0.30738868  0.88893327  0.79269014    -0.14700
C639        C  0.28269051  0.84308275  0.81357784     0.07500
C640        C  0.29292982  0.83037629  0.87310412    -0.14700
H641        H  0.34298284  0.83890385  0.94804662     0.11500
H642        H  0.37020311  0.94359208  0.80379010     0.11500
H643        H  0.29583595  0.90729663  0.75196704     0.11500
H644        H  0.27116797  0.80190325  0.89716181     0.11500
C645        C  0.38485937  0.84720526  0.65695331    -0.14700
C646        C  0.37259733  0.88992139  0.61938684     0.07500
C647        C  0.31956626  0.90489772  0.61198881    -0.14700
C648        C  0.27993887  0.87716177  0.64098230    -0.14700
C649        C  0.29272578  0.83526258  0.67971831     0.07500
C650        C  0.34577177  0.82085901  0.68707136    -0.14700
H651        H  0.42512494  0.83471537  0.66401822     0.11500
H652        H  0.30872783  0.93737645  0.58300410     0.11500
H653        H  0.23950908  0.88908513  0.63415890     0.11500
H654        H  0.35718686  0.78961233  0.71726459     0.11500
C655        C  0.37009529  0.66378790  0.88761904    -0.14700
C656        C  0.36479860  0.60892923  0.88190447     0.07500
C657        C  0.33048912  0.58804704  0.84027076    -0.14700
C658        C  0.30316354  0.62222954  0.80265715    -0.14700
C659        C  0.30945656  0.67708613  0.80780814     0.07500
C660        C  0.34220607  0.69777133  0.85083604    -0.14700
H661        H  0.39717716  0.68015110  0.91929134     0.11500
H662        H  0.32704990  0.54562392  0.83493744     0.11500
H663        H  0.27706003  0.60618325  0.76986718     0.11500
H664        H  0.34741033  0.74000492  0.85469247     0.11500
C665        C  0.40111352  0.64338682  0.66422425    -0.14700
C666        C  0.38309425  0.61746339  0.61440682     0.07500
C667        C  0.33180751  0.62699232  0.59365078    -0.14700
C668        C  0.29790632  0.65948637  0.62458000    -0.14700
C669        C  0.31514051  0.68346434  0.67606785     0.07500
C670        C  0.36770771  0.67703504  0.69411315    -0.14700
H671        H  0.44079055  0.63720981  0.68029281     0.13400
H672        H  0.31716896  0.60723440  0.55510244     0.11500
H673        H  0.25777616  0.66406785  0.60949815     0.11500
H674        H  0.38286509  0.69706225  0.73212275     0.11500
C675        C  0.60842909  0.64732422  0.84474036    -0.14700
C676        C  0.63282318  0.61665140  0.88885705     0.07500
C677        C  0.68648479  0.62086829  0.89981915    -0.14700
C678        C  0.71534017  0.65591223  0.86649241    -0.14700
C679        C  0.69064280  0.68544788  0.82151735     0.07500
C680        C  0.63695422  0.68160621  0.81177303    -0.14700
H681        H  0.56702962  0.64438925  0.83492029     0.11500
H682        H  0.70567275  0.59770509  0.93404170     0.11500
H683        H  0.75680959  0.65906876  0.87506273     0.11500
H684        H  0.61705684  0.70385255  0.77742040     0.11500
C685        C  0.64726760  0.59509614  0.67584152    -0.14700
C686        C  0.61461989  0.61473414  0.63084620     0.07500
C687        C  0.61804075  0.66786019  0.61360305    -0.14700
C688        C  0.65187678  0.70174619  0.64314533    -0.14700
C689        C  0.68382976  0.68256824  0.68904761     0.07500
C690        C  0.68263815  0.62842896  0.70363732    -0.14700
H691        H  0.64651888  0.55361033  0.68816854     0.11500
H692        H  0.59395715  0.68321145  0.57789523     0.11500
H693        H  0.65209930  0.74303129  0.63094529     0.11500
H694        H  0.70834691  0.61214935  0.73737457     0.11500
C695        C  0.61068847  0.34955771  0.90080017    -0.14700
C696        C  0.60896330  0.40317745  0.88405367     0.07500
C697        C  0.64275718  0.42098311  0.84110564    -0.14700
C698        C  0.67652705  0.38581371  0.81407236    -0.14700
C699        C  0.67602668  0.33152380  0.82765488     0.07500
C700        C  0.64381953  0.31379661  0.87235524    -0.14700
H701        H  0.58558010  0.33522326  0.93466369     0.11500
H702        H  0.64355468  0.46246719  0.82879132     0.11500
H703        H  0.70223026  0.40124783  0.78154550     0.11500
H704        H  0.64306496  0.27218088  0.88393902     0.11500
C705        C  0.62657215  0.33656634  0.69181882    -0.14700
C706        C  0.68086540  0.33457139  0.69609817     0.07500
C707        C  0.71112835  0.36938863  0.66382244    -0.14700
C708        C  0.68719846  0.40502275  0.62524134    -0.14700
C709        C  0.63277348  0.40584492  0.61903017     0.07500
C710        C  0.60254090  0.37190878  0.65317343    -0.14700
H711        H  0.60312305  0.30992246  0.71724186     0.11500
H712        H  0.75308292  0.36953621  0.66922831     0.11500
H713        H  0.71107698  0.43179326  0.60055906     0.11500
H714        H  0.56029494  0.37249790  0.65003888     0.11500
C715        C  0.42490611  0.37213189  0.82782761    -0.14700
C716        C  0.40844269  0.39892532  0.87730708     0.07500
C717        C  0.35669041  0.39408631  0.89540202    -0.14700
C718        C  0.32122043  0.36395872  0.86336896    -0.14700
C719        C  0.33728901  0.33720614  0.81341799     0.07500
C720        C  0.38999226  0.34030275  0.79706916    -0.14700
H721        H  0.46465155  0.37576497  0.81318888     0.11500
H722        H  0.34309179  0.41557384  0.93292036     0.11500
H723        H  0.28107551  0.36259590  0.87706871     0.11500
H724        H  0.40436522  0.31821558  0.76038766     0.11500
C725        C  0.38133621  0.34769247  0.59786812    -0.14700
C726        C  0.36796377  0.40159858  0.60032298     0.07500
C727        C  0.33460701  0.42072456  0.64287159    -0.14700
C728        C  0.31523855  0.38612945  0.68383327    -0.14700
C729        C  0.32824948  0.33210709  0.68141283     0.07500
C730        C  0.36047609  0.31262946  0.63780253    -0.14700
H731        H  0.40818107  0.33313265  0.56561259     0.11500
H732        H  0.32532721  0.46264238  0.64573112     0.11500
H733        H  0.28917345  0.40115560  0.71662561     0.11500
H734        H  0.36995621  0.27074510  0.63542172     0.11500
loop_ 
_geom_bond_atom_site_label_1 
_geom_bond_atom_site_label_2 
_geom_bond_distance 
_geom_bond_site_symmetry_2 
_ccdc_geom_bond_type 
O1            C9   1.289       .  A
O1          Co21   2.052       .  S
O2           C10   1.264       .  A
O2          Co22   2.006       .  S
O3           C11   1.257       .  A
O3          Co23   1.974       .  S
O4           C12   1.274       .  A
O4          Co24   1.898       .  S
O5           C11   1.267       .  A
O5          Co22   2.013       .  S
O6           C12   1.288       .  A
O6          Co21   2.025       .  S
O7           C10   1.255       .  A
O7         Co391   1.992       .  S
O8            C9   1.266       .  A
O8         Co390   1.880       .  S
C9          C359   1.438       .  S
C10         C329   1.472       .  S
C11         C349   1.463       .  S
C12         C342   1.455       .  S
O13          C26   1.252       .  A
O13         Co21   2.004       .  S
O14          C27   1.253       .  A
O14         Co22   1.944       .  S
O15          C28   1.241       .  A
O15        Co390   1.944       .  S
O16          C29   1.269       .  A
O16        Co391   2.014       .  S
O17          C29   1.253       .  A
O17         Co22   1.932       .  S
O18          C28   1.255       .  A
O18         Co21   1.996       .  S
O19          C26   1.239       .  A
O19         Co24   1.960       .  S
O20          C27   1.263       .  A
O20         Co23   2.001       .  S
Co21         O25   2.222   1_554  S
Co22        O392   2.051       .  S
Co23        O375   1.880       .  S
Co23        O382   1.944       .  S
Co23        O392   1.927       .  S
Co24        O374   1.992   1_554  S
Co24        O383   2.014   1_554  S
Co24         O25   1.923   1_554  S
O25        Co389   2.051       .  S
O25        Co390   1.927   1_556  S
C26         C319   1.463       .  S
C27         C289   1.442       .  S
C28         C299   1.463       .  S
C29         C309   1.452       .  S
O30          C38   1.283       .  A
O30         Co50   2.049   1_565  S
O31          C39   1.253       .  A
O31         Co51   1.992       .  S
O32          C40   1.266       .  A
O32        Co419   2.007       .  S
O33          C41   1.275       .  A
O33         Co53   1.930       .  S
O34          C40   1.263       .  A
O34         Co51   1.993   1_565  S
O35          C41   1.287       .  A
O35         Co50   2.071       .  S
O36          C39   1.258       .  A
O36        Co420   2.035       .  S
O37          C38   1.263       .  A
O37         Co52   1.951   1_554  S
C38         C249   1.495       .  S
C39         C209   1.496       .  S
C40         C259   1.484       .  S
C41         C222   1.487       .  S
O42          C55   1.273       .  A
O42         Co50   1.940       .  S
O43          C56   1.262       .  A
O43         Co51   1.988   1_565  S
O44          C57   1.258       .  A
O44         Co52   2.013   1_554  S
O45          C58   1.284       .  A
O45        Co420   2.046       .  S
O46          C58   1.263       .  A
O46         Co51   1.956       .  S
O47          C57   1.255       .  A
O47         Co50   2.028   1_565  S
O48          C55   1.291       .  A
O48         Co53   2.089       .  S
O49          C56   1.264       .  A
O49        Co419   1.987       .  S
Co50         O54   2.043   1_544  S
Co51        O421   2.077   1_545  S
Co52        O399   2.007       .  S
Co52        O416   1.987       .  S
Co52         O54   2.079       .  S
Co53        O403   2.035   1_554  S
Co53        O412   2.046   1_554  S
Co53         O54   2.041   1_544  S
O54        Co418   2.077   1_565  S
C55         C229   1.490       .  S
C56         C269   1.486       .  S
C57         C279   1.500       .  S
C58         C239   1.488       .  S
O59          C67   1.264       .  A
O59         Co79   1.984       .  S
O60          C68   1.278       .  A
O60         Co80   1.937       .  S
O61          C69   1.254       .  A
O61         Co81   1.994   1_455  S
O62          C70   1.281       .  A
O62         Co82   2.047       .  S
O63          C69   1.256       .  A
O63        Co447   2.026   1_554  S
O64          C70   1.264       .  A
O64        Co446   1.977       .  S
O65          C68   1.288       .  A
O65         Co82   2.074   1_455  S
O66          C67   1.260       .  A
O66         Co81   1.985       .  S
C67         C199   1.485       .  S
C68         C139   1.497       .  S
C69         C129   1.491       .  S
C70         C192   1.488       .  S
O71          C84   1.257       .  A
O71        Co446   1.995       .  S
O72          C85   1.290       .  A
O72        Co447   2.071   1_554  S
O73          C86   1.263       .  A
O73         Co81   1.992       .  S
O74          C87   1.273       .  A
O74         Co82   1.946   1_455  S
O75          C87   1.288       .  A
O75         Co80   2.079       .  S
O76          C86   1.265       .  A
O76         Co79   1.996       .  S
O77          C84   1.256       .  A
O77         Co82   2.016       .  S
O78          C85   1.262       .  A
O78         Co81   1.951   1_455  S
Co79        O431   1.977   1_554  S
Co79        O438   1.995   1_554  S
Co79         O83   2.073       .  S
Co80        O430   2.026       .  S
Co80        O439   2.071       .  S
Co80        O450   2.038   1_455  S
Co81         O83   2.085       .  S
Co82        O450   2.049       .  S
O83        Co447   2.038   1_654  S
O83        Co449   2.049   1_554  S
C84         C179   1.481       .  S
C85         C159   1.499       .  S
C86         C169   1.495       .  S
C87         C149   1.489       .  S
C88          H89   1.110       .  S
C88          C94   1.551       .  S
C88          C93   1.542       .  S
C88          C92   1.537       .  S
C90          H91   1.111       .  S
C90          C96   1.545       .  S
C90          C95   1.525       .  S
C90          C97   1.541       .  S
C92          C95   1.371       .  D
C92         C352   1.489       .  S
C93          C96   1.389       .  D
C93         C242   1.499       .  S
C94          C97   1.385       .  D
C94         C152   1.506       .  S
C95         C362   1.455       .  S
C96         C232   1.511       .  S
C97         C162   1.509       .  S
C98          H99   1.098       .  S
C98         C104   1.543       .  S
C98         C103   1.535       .  S
C98         C102   1.525       .  S
C100        H101   1.112       .  S
C100        C106   1.550       .  S
C100        C105   1.535       .  S
C100        C107   1.563       .  S
C102        C105   1.368       .  D
C102        C339   1.452       .  S
C103        C106   1.384       .  D
C103        C219   1.511       .  S
C104        C107   1.402       .  D
C104        C172   1.546       .  S
C105        C332   1.486       .  S
C106        C212   1.505       .  S
C107        C182   1.493       .  S
C108        H109   1.111       .  S
C108        C114   1.562       .  S
C108        C113   1.557       .  S
C108        C112   1.533       .  S
C110        H111   1.092       .  S
C110        C116   1.551       .  S
C110        C115   1.526       .  S
C110        C117   1.534       .  S
C112        C115   1.368       .  D
C112        C302   1.481       .  S
C113        C116   1.399       .  D
C113        C282   1.512       .  S
C114        C117   1.390       .  D
C114        C132   1.502       .  S
C115        C292   1.454       .  S
C116        C272   1.539       .  S
C117        C142   1.535       .  S
C118        H119   1.112       .  S
C118        C124   1.548       .  S
C118        C123   1.557       .  S
C118        C122   1.521       .  S
C120        H121   1.094       .  S
C120        C126   1.556       .  S
C120        C125   1.541       .  S
C120        C127   1.546       .  S
C122        C125   1.375       .  D
C122        C312   1.462       .  S
C123        C126   1.392       .  D
C123        C262   1.503       .  S
C124        C127   1.386       .  D
C124        C189   1.514       .  S
C125        C322   1.485       .  S
C126        C252   1.544       .  S
C127        C202   1.514       .  S
C128        C129   1.408       .  A
C128        C133   1.413       .  A
C128        H134   1.083       .  S
C129        C130   1.406       .  A
C130        C131   1.395       .  A
C130        H135   1.083       .  S
C131        C132   1.405       .  A
C131        H136   1.082       .  S
C132        C133   1.409       .  A
C133        H137   1.082       .  S
C138        C139   1.393       .  A
C138        C143   1.394       .  A
C138        H144   1.084       .  S
C139        C140   1.416       .  A
C140        C141   1.418       .  A
C140        H145   1.083       .  S
C141        C142   1.411       .  A
C141        H146   1.083       .  S
C142        C143   1.420       .  A
C143        H147   1.072       .  S
C148        C149   1.408       .  A
C148        C153   1.407       .  A
C148        H154   1.083       .  S
C149        C150   1.404       .  A
C150        C151   1.405       .  A
C150        H155   1.083       .  S
C151        C152   1.412       .  A
C151        H156   1.081       .  S
C152        C153   1.404       .  A
C153        H157   1.083       .  S
C158        C159   1.402       .  A
C158        C163   1.407       .  A
C158        H164   1.083       .  S
C159        C160   1.416       .  A
C160        C161   1.402       .  A
C160        H165   1.083       .  S
C161        C162   1.402       .  A
C161        H166   1.083       .  S
C162        C163   1.414       .  A
C163        H167   1.076       .  S
C168        C169   1.408       .  A
C168        C173   1.406       .  A
C168        H174   1.083       .  S
C169        C170   1.399       .  A
C170        C171   1.402       .  A
C170        H175   1.083       .  S
C171        C172   1.423       .  A
C171        H176   1.075       .  S
C172        C173   1.414       .  A
C173        H177   1.076       .  S
C178        C179   1.408       .  A
C178        C183   1.411       .  A
C178        H184   1.083       .  S
C179        C180   1.402       .  A
C180        C181   1.391       .  A
C180        H185   1.083       .  S
C181        C182   1.405       .  A
C181        H186   1.080       .  S
C182        C183   1.407       .  A
C183        H187   1.082       .  S
C188        C189   1.415       .  A
C188        C193   1.402       .  A
C188        H194   1.082       .  S
C189        C190   1.404       .  A
C190        C191   1.409       .  A
C190        H195   1.082       .  S
C191        C192   1.410       .  A
C191        H196   1.083       .  S
C192        C193   1.401       .  A
C193        H197   1.083       .  S
C198        C199   1.409       .  A
C198        C203   1.410       .  A
C198        H204   1.083       .  S
C199        C200   1.401       .  A
C200        C201   1.386       .  A
C200        H205   1.083       .  S
C201        C202   1.410       .  A
C201        H206   1.077       .  S
C202        C203   1.413       .  A
C203        H207   1.083       .  S
C208        C209   1.409       .  A
C208        C213   1.414       .  A
C208        H214   1.083       .  S
C209        C210   1.408       .  A
C210        C211   1.397       .  A
C210        H215   1.083       .  S
C211        C212   1.405       .  A
C211        H216   1.082       .  S
C212        C213   1.410       .  A
C213        H217   1.083       .  S
C218        C219   1.413       .  A
C218        C223   1.393       .  A
C218        H224   1.074       .  S
C219        C220   1.405       .  A
C220        C221   1.410       .  A
C220        H225   1.083       .  S
C221        C222   1.413       .  A
C221        H226   1.082       .  S
C222        C223   1.396       .  A
C223        H227   1.084       .  S
C228        C229   1.408       .  A
C228        C233   1.409       .  A
C228        H234   1.083       .  S
C229        C230   1.403       .  A
C230        C231   1.403       .  A
C230        H235   1.083       .  S
C231        C232   1.412       .  A
C231        H236   1.081       .  S
C232        C233   1.407       .  A
C233        H237   1.083       .  S
C238        C239   1.402       .  A
C238        C243   1.402       .  A
C238        H244   1.083       .  S
C239        C240   1.412       .  A
C240        C241   1.399       .  A
C240        H245   1.083       .  S
C241        C242   1.401       .  A
C241        H246   1.083       .  S
C242        C243   1.413       .  A
C243        H247   1.079       .  S
C248        C249   1.403       .  A
C248        C253   1.392       .  A
C248        H254   1.083       .  S
C249        C250   1.404       .  A
C250        C251   1.413       .  A
C250        H255   1.083       .  S
C251        C252   1.422       .  A
C251        H256   1.076       .  S
C252        C253   1.412       .  A
C253        H257   1.073       .  S
C258        C259   1.400       .  A
C258        C263   1.396       .  A
C258        H264   1.083       .  S
C259        C260   1.410       .  A
C260        C261   1.412       .  A
C260        H265   1.083       .  S
C261        C262   1.407       .  A
C261        H266   1.083       .  S
C262        C263   1.408       .  A
C263        H267   1.079       .  S
C268        C269   1.395       .  A
C268        C273   1.396       .  A
C268        H274   1.084       .  S
C269        C270   1.407       .  A
C270        C271   1.404       .  A
C270        H275   1.083       .  S
C271        C272   1.413       .  A
C271        H276   1.076       .  S
C272        C273   1.422       .  A
C273        H277   1.073       .  S
C278        C279   1.405       .  A
C278        C283   1.401       .  A
C278        H284   1.083       .  S
C279        C280   1.412       .  A
C280        C281   1.416       .  A
C280        H285   1.083       .  S
C281        C282   1.409       .  A
C281        H286   1.083       .  S
C282        C283   1.408       .  A
C283        H287   1.081       .  S
C288        C289   1.401       .  A
C288        C293   1.382       .  A
C288        H294   1.084       .  S
C289        C290   1.398       .  A
C290        C291   1.390       .  A
C290        H295   1.084       .  S
C291        C292   1.402       .  A
C291        H296   1.083       .  S
C292        C293   1.394       .  A
C293        H297   1.081       .  S
C298        C299   1.397       .  A
C298        C303   1.391       .  A
C298        H304   1.084       .  S
C299        C300   1.406       .  A
C300        C301   1.394       .  A
C300        H305   1.083       .  S
C301        C302   1.400       .  A
C301        H306   1.083       .  S
C302        C303   1.408       .  A
C303        H307   1.081       .  S
C308        C309   1.404       .  A
C308        C313   1.374       .  A
C308        H314   1.084       .  S
C309        C310   1.398       .  A
C310        C311   1.396       .  A
C310        H315   1.083       .  S
C311        C312   1.406       .  A
C311        H316   1.081       .  S
C312        C313   1.394       .  A
C313        H317   1.081       .  S
C318        C319   1.401       .  A
C318        C323   1.395       .  A
C318        H324   1.084       .  S
C319        C320   1.401       .  A
C320        C321   1.397       .  A
C320        H325   1.084       .  S
C321        C322   1.402       .  A
C321        H326   1.078       .  S
C322        C323   1.406       .  A
C323        H327   1.083       .  S
C328        C329   1.405       .  A
C328        C333   1.404       .  A
C328        H334   1.083       .  S
C329        C330   1.402       .  A
C330        C331   1.389       .  A
C330        H335   1.084       .  S
C331        C332   1.404       .  A
C331        H336   1.080       .  S
C332        C333   1.405       .  A
C333        H337   1.083       .  S
C338        C339   1.393       .  A
C338        C343   1.385       .  A
C338        H344   1.084       .  S
C339        C340   1.399       .  A
C340        C341   1.387       .  A
C340        H345   1.080       .  S
C341        C342   1.399       .  A
C341        H346   1.083       .  S
C342        C343   1.408       .  A
C343        H347   1.083       .  S
C348        C349   1.396       .  A
C348        C353   1.396       .  A
C348        H354   1.083       .  S
C349        C350   1.404       .  A
C350        C351   1.396       .  A
C350        H355   1.083       .  S
C351        C352   1.402       .  A
C351        H356   1.082       .  S
C352        C353   1.411       .  A
C353        H357   1.082       .  S
C358        C359   1.401       .  A
C358        C363   1.391       .  A
C358        H364   1.083       .  S
C359        C360   1.395       .  A
C360        C361   1.384       .  A
C360        H365   1.084       .  S
C361        C362   1.401       .  A
C361        H366   1.084       .  S
C362        C363   1.398       .  A
C363        H367   1.084       .  S
O368        C376   1.289       .  A
O368       Co388   2.052       .  S
O369        C377   1.264       .  A
O369       Co389   2.006       .  S
O370        C378   1.257       .  A
O370       Co390   1.974   1_556  S
O371        C379   1.274       .  A
O371       Co391   1.898       .  S
O372        C378   1.267       .  A
O372       Co389   2.013       .  S
O373        C379   1.288       .  A
O373       Co388   2.025       .  S
O374        C377   1.255       .  A
O375        C376   1.266       .  A
C376        C726   1.438       .  S
C377        C696   1.472       .  S
C378        C716   1.463       .  S
C379        C709   1.455       .  S
O380        C393   1.252       .  A
O380       Co388   2.004       .  S
O381        C394   1.253       .  A
O381       Co389   1.944       .  S
O382        C395   1.241       .  A
O383        C396   1.269       .  A
O384        C396   1.253       .  A
O384       Co389   1.932       .  S
O385        C395   1.255       .  A
O385       Co388   1.996       .  S
O386        C393   1.239       .  A
O386       Co391   1.960       .  S
O387        C394   1.263       .  A
O387       Co390   2.001   1_556  S
Co388       O392   2.222       .  S
Co391       O392   1.923       .  S
C393        C686   1.463       .  S
C394        C656   1.442       .  S
C395        C666   1.463       .  S
C396        C676   1.452       .  S
O397        C405   1.283       .  A
O397       Co417   2.049   1_565  S
O398        C406   1.253       .  A
O398       Co418   1.992       .  S
O399        C407   1.266       .  A
O400        C408   1.275       .  A
O400       Co420   1.930       .  S
O401        C407   1.263       .  A
O401       Co418   1.993   1_565  S
O402        C408   1.287       .  A
O402       Co417   2.071       .  S
O403        C406   1.258       .  A
O404        C405   1.263       .  A
O404       Co419   1.951       .  S
C405        C616   1.495       .  S
C406        C576   1.496       .  S
C407        C626   1.484       .  S
C408        C589   1.487       .  S
O409        C422   1.273       .  A
O409       Co417   1.940       .  S
O410        C423   1.262       .  A
O410       Co418   1.988   1_565  S
O411        C424   1.258       .  A
O411       Co419   2.013       .  S
O412        C425   1.284       .  A
O413        C425   1.263       .  A
O413       Co418   1.956       .  S
O414        C424   1.255       .  A
O414       Co417   2.028   1_565  S
O415        C422   1.291       .  A
O415       Co420   2.089       .  S
O416        C423   1.264       .  A
Co417       O421   2.043   1_545  S
Co419       O421   2.079       .  S
Co420       O421   2.041   1_545  S
C422        C596   1.490       .  S
C423        C636   1.486       .  S
C424        C646   1.500       .  S
C425        C606   1.488       .  S
O426        C434   1.264       .  A
O426       Co446   1.984       .  S
O427        C435   1.278       .  A
O427       Co447   1.937       .  S
O428        C436   1.254       .  A
O428       Co448   1.994   1_455  S
O429        C437   1.281       .  A
O429       Co449   2.047       .  S
O430        C436   1.256       .  A
O431        C437   1.264       .  A
O432        C435   1.288       .  A
O432       Co449   2.074   1_455  S
O433        C434   1.260       .  A
O433       Co448   1.985       .  S
C434        C566   1.485       .  S
C435        C506   1.497       .  S
C436        C496   1.491       .  S
C437        C559   1.488       .  S
O438        C451   1.257       .  A
O439        C452   1.290       .  A
O440        C453   1.263       .  A
O440       Co448   1.992       .  S
O441        C454   1.273       .  A
O441       Co449   1.946   1_455  S
O442        C454   1.288       .  A
O442       Co447   2.079       .  S
O443        C453   1.265       .  A
O443       Co446   1.996       .  S
O444        C451   1.256       .  A
O444       Co449   2.016       .  S
O445        C452   1.262       .  A
O445       Co448   1.951   1_455  S
Co446       O450   2.073       .  S
Co448       O450   2.085       .  S
C451        C546   1.481       .  S
C452        C526   1.499       .  S
C453        C536   1.495       .  S
C454        C516   1.489       .  S
C455        H456   1.110       .  S
C455        C461   1.551       .  S
C455        C460   1.542       .  S
C455        C459   1.537       .  S
C457        H458   1.111       .  S
C457        C463   1.545       .  S
C457        C462   1.525       .  S
C457        C464   1.541       .  S
C459        C462   1.371       .  D
C459        C719   1.489       .  S
C460        C463   1.389       .  D
C460        C609   1.499       .  S
C461        C464   1.385       .  D
C461        C519   1.506       .  S
C462        C729   1.455       .  S
C463        C599   1.511       .  S
C464        C529   1.509       .  S
C465        H466   1.098       .  S
C465        C471   1.543       .  S
C465        C470   1.535       .  S
C465        C469   1.525       .  S
C467        H468   1.112       .  S
C467        C473   1.550       .  S
C467        C472   1.535       .  S
C467        C474   1.563       .  S
C469        C472   1.368       .  D
C469        C706   1.452       .  S
C470        C473   1.384       .  D
C470        C586   1.511       .  S
C471        C474   1.402       .  D
C471        C539   1.546       .  S
C472        C699   1.486       .  S
C473        C579   1.505       .  S
C474        C549   1.493       .  S
C475        H476   1.111       .  S
C475        C481   1.562       .  S
C475        C480   1.557       .  S
C475        C479   1.533       .  S
C477        H478   1.092       .  S
C477        C483   1.551       .  S
C477        C482   1.526       .  S
C477        C484   1.534       .  S
C479        C482   1.368       .  D
C479        C669   1.481       .  S
C480        C483   1.399       .  D
C480        C649   1.512       .  S
C481        C484   1.390       .  D
C481        C499   1.502       .  S
C482        C659   1.454       .  S
C483        C639   1.539       .  S
C484        C509   1.535       .  S
C485        H486   1.112       .  S
C485        C491   1.548       .  S
C485        C490   1.557       .  S
C485        C489   1.521       .  S
C487        H488   1.094       .  S
C487        C493   1.556       .  S
C487        C492   1.541       .  S
C487        C494   1.546       .  S
C489        C492   1.375       .  D
C489        C679   1.462       .  S
C490        C493   1.392       .  D
C490        C629   1.503       .  S
C491        C494   1.386       .  D
C491        C556   1.514       .  S
C492        C689   1.485       .  S
C493        C619   1.544       .  S
C494        C569   1.514       .  S
C495        C496   1.408       .  A
C495        C500   1.413       .  A
C495        H501   1.083       .  S
C496        C497   1.406       .  A
C497        C498   1.395       .  A
C497        H502   1.083       .  S
C498        C499   1.405       .  A
C498        H503   1.082       .  S
C499        C500   1.409       .  A
C500        H504   1.082       .  S
C505        C506   1.393       .  A
C505        C510   1.394       .  A
C505        H511   1.084       .  S
C506        C507   1.416       .  A
C507        C508   1.418       .  A
C507        H512   1.083       .  S
C508        C509   1.411       .  A
C508        H513   1.083       .  S
C509        C510   1.420       .  A
C510        H514   1.072       .  S
C515        C516   1.408       .  A
C515        C520   1.407       .  A
C515        H521   1.083       .  S
C516        C517   1.404       .  A
C517        C518   1.405       .  A
C517        H522   1.083       .  S
C518        C519   1.412       .  A
C518        H523   1.081       .  S
C519        C520   1.404       .  A
C520        H524   1.083       .  S
C525        C526   1.402       .  A
C525        C530   1.407       .  A
C525        H531   1.083       .  S
C526        C527   1.416       .  A
C527        C528   1.402       .  A
C527        H532   1.083       .  S
C528        C529   1.402       .  A
C528        H533   1.083       .  S
C529        C530   1.414       .  A
C530        H534   1.076       .  S
C535        C536   1.408       .  A
C535        C540   1.406       .  A
C535        H541   1.083       .  S
C536        C537   1.399       .  A
C537        C538   1.402       .  A
C537        H542   1.083       .  S
C538        C539   1.423       .  A
C538        H543   1.075       .  S
C539        C540   1.414       .  A
C540        H544   1.076       .  S
C545        C546   1.408       .  A
C545        C550   1.411       .  A
C545        H551   1.083       .  S
C546        C547   1.402       .  A
C547        C548   1.391       .  A
C547        H552   1.083       .  S
C548        C549   1.405       .  A
C548        H553   1.080       .  S
C549        C550   1.407       .  A
C550        H554   1.082       .  S
C555        C556   1.415       .  A
C555        C560   1.402       .  A
C555        H561   1.082       .  S
C556        C557   1.404       .  A
C557        C558   1.409       .  A
C557        H562   1.082       .  S
C558        C559   1.410       .  A
C558        H563   1.083       .  S
C559        C560   1.401       .  A
C560        H564   1.083       .  S
C565        C566   1.409       .  A
C565        C570   1.410       .  A
C565        H571   1.083       .  S
C566        C567   1.401       .  A
C567        C568   1.386       .  A
C567        H572   1.083       .  S
C568        C569   1.410       .  A
C568        H573   1.077       .  S
C569        C570   1.413       .  A
C570        H574   1.083       .  S
C575        C576   1.409       .  A
C575        C580   1.414       .  A
C575        H581   1.083       .  S
C576        C577   1.408       .  A
C577        C578   1.397       .  A
C577        H582   1.083       .  S
C578        C579   1.405       .  A
C578        H583   1.082       .  S
C579        C580   1.410       .  A
C580        H584   1.083       .  S
C585        C586   1.413       .  A
C585        C590   1.393       .  A
C585        H591   1.074       .  S
C586        C587   1.405       .  A
C587        C588   1.410       .  A
C587        H592   1.083       .  S
C588        C589   1.413       .  A
C588        H593   1.082       .  S
C589        C590   1.396       .  A
C590        H594   1.084       .  S
C595        C596   1.408       .  A
C595        C600   1.409       .  A
C595        H601   1.083       .  S
C596        C597   1.403       .  A
C597        C598   1.403       .  A
C597        H602   1.083       .  S
C598        C599   1.412       .  A
C598        H603   1.081       .  S
C599        C600   1.407       .  A
C600        H604   1.083       .  S
C605        C606   1.402       .  A
C605        C610   1.402       .  A
C605        H611   1.083       .  S
C606        C607   1.412       .  A
C607        C608   1.399       .  A
C607        H612   1.083       .  S
C608        C609   1.401       .  A
C608        H613   1.083       .  S
C609        C610   1.413       .  A
C610        H614   1.079       .  S
C615        C616   1.403       .  A
C615        C620   1.392       .  A
C615        H621   1.083       .  S
C616        C617   1.404       .  A
C617        C618   1.413       .  A
C617        H622   1.083       .  S
C618        C619   1.422       .  A
C618        H623   1.076       .  S
C619        C620   1.412       .  A
C620        H624   1.073       .  S
C625        C626   1.400       .  A
C625        C630   1.396       .  A
C625        H631   1.083       .  S
C626        C627   1.410       .  A
C627        C628   1.412       .  A
C627        H632   1.083       .  S
C628        C629   1.407       .  A
C628        H633   1.083       .  S
C629        C630   1.408       .  A
C630        H634   1.079       .  S
C635        C636   1.395       .  A
C635        C640   1.396       .  A
C635        H641   1.084       .  S
C636        C637   1.407       .  A
C637        C638   1.404       .  A
C637        H642   1.083       .  S
C638        C639   1.413       .  A
C638        H643   1.076       .  S
C639        C640   1.422       .  A
C640        H644   1.073       .  S
C645        C646   1.405       .  A
C645        C650   1.401       .  A
C645        H651   1.083       .  S
C646        C647   1.412       .  A
C647        C648   1.416       .  A
C647        H652   1.083       .  S
C648        C649   1.409       .  A
C648        H653   1.083       .  S
C649        C650   1.408       .  A
C650        H654   1.081       .  S
C655        C656   1.401       .  A
C655        C660   1.382       .  A
C655        H661   1.084       .  S
C656        C657   1.398       .  A
C657        C658   1.390       .  A
C657        H662   1.084       .  S
C658        C659   1.402       .  A
C658        H663   1.083       .  S
C659        C660   1.394       .  A
C660        H664   1.081       .  S
C665        C666   1.397       .  A
C665        C670   1.391       .  A
C665        H671   1.084       .  S
C666        C667   1.406       .  A
C667        C668   1.394       .  A
C667        H672   1.083       .  S
C668        C669   1.400       .  A
C668        H673   1.083       .  S
C669        C670   1.408       .  A
C670        H674   1.081       .  S
C675        C676   1.404       .  A
C675        C680   1.374       .  A
C675        H681   1.084       .  S
C676        C677   1.398       .  A
C677        C678   1.396       .  A
C677        H682   1.083       .  S
C678        C679   1.406       .  A
C678        H683   1.081       .  S
C679        C680   1.394       .  A
C680        H684   1.081       .  S
C685        C686   1.401       .  A
C685        C690   1.395       .  A
C685        H691   1.084       .  S
C686        C687   1.401       .  A
C687        C688   1.397       .  A
C687        H692   1.084       .  S
C688        C689   1.402       .  A
C688        H693   1.078       .  S
C689        C690   1.406       .  A
C690        H694   1.083       .  S
C695        C696   1.405       .  A
C695        C700   1.404       .  A
C695        H701   1.083       .  S
C696        C697   1.402       .  A
C697        C698   1.389       .  A
C697        H702   1.084       .  S
C698        C699   1.404       .  A
C698        H703   1.080       .  S
C699        C700   1.405       .  A
C700        H704   1.083       .  S
C705        C706   1.393       .  A
C705        C710   1.385       .  A
C705        H711   1.084       .  S
C706        C707   1.399       .  A
C707        C708   1.387       .  A
C707        H712   1.080       .  S
C708        C709   1.399       .  A
C708        H713   1.083       .  S
C709        C710   1.408       .  A
C710        H714   1.083       .  S
C715        C716   1.396       .  A
C715        C720   1.396       .  A
C715        H721   1.083       .  S
C716        C717   1.404       .  A
C717        C718   1.396       .  A
C717        H722   1.083       .  S
C718        C719   1.402       .  A
C718        H723   1.082       .  S
C719        C720   1.411       .  A
C720        H724   1.082       .  S
C725        C726   1.401       .  A
C725        C730   1.391       .  A
C725        H731   1.083       .  S
C726        C727   1.395       .  A
C727        C728   1.384       .  A
C727        H732   1.084       .  S
C728        C729   1.401       .  A
C728        H733   1.084       .  S
C729        C730   1.398       .  A
C730        H734   1.084       .  S
