geometry optimzed in LAMMPS
_audit_creation_date              2020-11-30 
_audit_creation_method            'lammps2cif' 
_symmetry_space_group_name_H-M    'P1' 
_symmetry_Int_Tables_number       1 
_symmetry_cell_setting            triclinic 
loop_ 
_symmetry_equiv_pos_as_xyz 
  x,y,z 
_cell_length_a                    28.22977075 
_cell_length_b                    40.36273139396126 
_cell_length_c                    28.979969652774344 
_cell_angle_alpha                 89.893021246757 
_cell_angle_beta                  90.10248503183873 
_cell_angle_gamma                 89.08653176323642 
loop_ 
_atom_site_label 
_atom_site_type_symbol 
_atom_site_fract_x 
_atom_site_fract_y 
_atom_site_fract_z 
_atom_site_charge 
C1          C  0.07980418  0.20639357  0.00235629    -0.01700
C2          C  0.03040147  0.23101924  0.50327780    -0.01700
Zn3        Zn  0.30186654  0.25324053  0.19791497     1.49700
Zn4        Zn  0.24861156  0.19653670  0.25218023     1.49400
Zn5        Zn  0.36216433  0.19951226  0.25400946     1.49100
Zn6        Zn  0.29925214  0.25464050  0.30734771     1.49500
O7          O  0.30300522  0.22579625  0.25306581    -1.83400
O8          O  0.24713575  0.24297564  0.15690329    -0.74000
O9          O  0.27026125  0.14848516  0.25331135    -0.73800
O10         O  0.40166874  0.20728383  0.19661550    -0.73300
O11         O  0.20846532  0.20395667  0.19498845    -0.74000
O12         O  0.35892356  0.24542516  0.15940237    -0.73600
O13         O  0.34864928  0.15083467  0.25589938    -0.74200
O14         O  0.35441815  0.24542122  0.34916765    -0.73600
O15         O  0.20772100  0.20429812  0.30802623    -0.74300
O16         O  0.40036507  0.20971416  0.31111710    -0.73700
O17         O  0.23987910  0.24663267  0.34470059    -0.74200
O18         O  0.30209988  0.30304280  0.28993627    -0.74100
O19         O  0.30071788  0.30140635  0.21344472    -0.73900
C20         C  0.21320948  0.22279756  0.16002955     0.77900
C21         C  0.31081234  0.13414243  0.25507873     0.78400
C22         C  0.39518260  0.22654398  0.16219936     0.77300
C23         C  0.39204922  0.22778132  0.34632420     0.77700
C24         C  0.20797382  0.22476779  0.34143282     0.78900
C25         C  0.30215977  0.31766254  0.25097127     0.77900
C26         C  0.32531014  0.98712372  0.24597241    -0.01700
C27         C  0.27644116  0.46299576  0.24725958    -0.01700
Zn28       Zn  0.04959249  0.44085599  0.44140351     1.49700
Zn29       Zn  0.99572423  0.99911129  0.49558693     1.49400
Zn30       Zn  0.04635958  0.43927799  0.05122615     1.49100
Zn31       Zn  0.10947524  0.49247059  0.49934730     1.49500
O32         O  0.05008181  0.46799688  0.49697479    -1.83400
O33         O  0.99147977  0.45077957  0.40321995    -0.74000
O34         O  0.45418158  0.49223021  0.05109419    -0.73800
O35         O  0.05016953  0.39115609  0.03270850    -0.73300
O36         O  0.45494703  0.49274351  0.43843932    -0.74000
O37         O  0.05297175  0.39175237  0.45622043    -0.73600
O38         O  0.98572469  0.44838250  0.08685104    -0.74200
O39         O  0.14619816  0.48231825  0.05676912    -0.73600
O40         O  0.01793330  0.04665753  0.49700623    -0.74300
O41         O  0.10135714  0.44689220  0.09467013    -0.73700
O42         O  0.09623210  0.04150493  0.50014485    -0.74200
O43         O  0.15173266  0.48273910  0.44480816    -0.74100
O44         O  0.10554017  0.45119953  0.40154543    -0.73900
C45         C  0.45801894  0.47229526  0.40505936     0.77900
C46         C  0.45380698  0.47102383  0.08370483     0.78400
C47         C  0.05315499  0.37591426  0.49430606     0.77300
C48         C  0.13851148  0.46429714  0.09189965     0.77700
C49         C  0.05884468  0.05953893  0.49928844     0.78900
C50         C  0.14364473  0.46702979  0.40769872     0.77900
C51         C  0.16251714  0.47885863  0.32681023    -0.20500
C52         C  0.17790351  0.46822340  0.36973257    -0.08600
C53         C  0.22498707  0.45850606  0.37521281     0.30300
C54         C  0.25566493  0.45800439  0.33727439    -0.20500
C55         C  0.24207085  0.46813701  0.29182424    -0.08600
C56         C  0.19296932  0.47954512  0.28911469     0.30300
F57         F  0.17140893  0.49156860  0.25054075    -0.19100
H58         H  0.12601412  0.48704028  0.32227431     0.18600
H59         H  0.29031237  0.45007559  0.34625777     0.18600
F60         F  0.24119915  0.44822753  0.41709378    -0.19100
C61         C  0.20964697  0.48745431  0.13088199    -0.20500
C62         C  0.17346496  0.46409610  0.13018020    -0.08600
C63         C  0.17069958  0.44155109  0.16670605     0.30300
C64         C  0.20371633  0.44237090  0.20241866    -0.20500
C65         C  0.24129715  0.46588235  0.20431381    -0.08600
C66         C  0.24238473  0.48881496  0.16712085     0.30300
F67         F  0.27133265  0.01466491  0.16594371    -0.19100
H68         H  0.21187453  0.00579930  0.10370275     0.18600
H69         H  0.19963168  0.42442430  0.22994214     0.18600
F70         F  0.13612553  0.41857947  0.16835981    -0.19100
C71         C  0.37937012  0.49020674  0.37147259    -0.20500
C72         C  0.42344095  0.47426563  0.36641853    -0.08600
C73         C  0.43640043  0.46307946  0.32253496     0.30300
C74         C  0.40613812  0.46767559  0.28500270    -0.20500
C75         C  0.35902915  0.48034376  0.28934667    -0.08600
C76         C  0.34825727  0.49387154  0.33386423     0.28900
F77         F  0.30879878  0.51284158  0.34092236    -0.19100
H78         H  0.36931037  0.50073556  0.40444931     0.18600
H79         H  0.42320870  0.96356818  0.25270100     0.18600
F80         F  0.98035182  0.45012814  0.31462519    -0.19100
C81         C  0.36360967  0.50694223  0.16690802    -0.20500
C82         C  0.35456038  0.48059116  0.19870702    -0.08600
C83         C  0.37726532  0.44966801  0.18662669     0.30300
C84         C  0.40705081  0.44656313  0.14820929    -0.20500
C85         C  0.41663922  0.47353868  0.11977401    -0.08600
C86         C  0.39346304  0.50362507  0.12886041     0.30300
F87         F  0.40164355  0.53084590  0.10260126    -0.19100
H88         H  0.34882765  0.53152908  0.17083184     0.18600
H89         H  0.42513212  0.42306003  0.14239764     0.18600
F90         F  0.37952144  0.42343958  0.21559262    -0.19100
C91         C  0.29176810  0.37032119  0.20739899    -0.20500
C92         C  0.30307779  0.35425442  0.24871803    -0.08600
C93         C  0.31772538  0.37353908  0.28609492     0.30300
C94         C  0.31492296  0.40816277  0.28360914    -0.20500
C95         C  0.29331656  0.42493308  0.24572770    -0.08600
C96         C  0.28912134  0.40472913  0.20506936     0.30300
F97         F  0.28490858  0.41794063  0.16204882    -0.19100
H98         H  0.28506422  0.35627221  0.17631430     0.18600
H99         H  0.33343096  0.42089172  0.31021078     0.18600
F100        F  0.33682087  0.35911000  0.32433606    -0.19100
C101        C  0.35935289  0.04579493  0.25433198    -0.20500
C102        C  0.31787144  0.02619486  0.25010660    -0.08600
C103        C  0.27441029  0.04420091  0.25076734     0.30300
C104        C  0.27266559  0.07876679  0.25340228    -0.20500
C105        C  0.31394264  0.09735464  0.25552966    -0.08600
C106        C  0.35762900  0.08033493  0.25656210     0.30300
F107        F  0.39908640  0.09685222  0.25867729    -0.19100
H108        H  0.39414667  0.03412132  0.25405465     0.18600
H109        H  0.23829664  0.09108768  0.25243637     0.18600
F110        F  0.23282126  0.02987345  0.24508531    -0.19100
C111        C  0.46540906  0.20641927  0.38513824    -0.20500
C112        C  0.42660828  0.22814804  0.38491870    -0.08600
C113        C  0.42149591  0.25004656  0.42184425     0.30300
C114        C  0.45439186  0.24986424  0.45774134    -0.20500
C115        C  0.49407585  0.22749404  0.46043389    -0.08600
C116        C  0.49825763  0.20599743  0.42133473     0.30300
F117        F  0.53114900  0.18225065  0.41720263    -0.19100
H118        H  0.47031289  0.18895616  0.35712213     0.18600
H119        H  0.44927390  0.26972671  0.48140414     0.18600
F120        F  0.38553697  0.27279539  0.42294967    -0.19100
C121        C  0.46898037  0.25624909  0.06247539    -0.20500
C122        C  0.49677961  0.22802779  0.04850322    -0.08600
C123        C  0.48949206  0.19919441  0.07709738     0.30300
C124        C  0.45668179  0.19907330  0.11326526    -0.20500
C125        C  0.42984155  0.22711627  0.12415598    -0.08600
C126        C  0.43645873  0.25583598  0.09846578     0.30300
F127        F  0.41246934  0.28427849  0.10892458    -0.19100
H128        H  0.47245594  0.28026413  0.04680628     0.18600
H129        H  0.45333392  0.17683361  0.13395604     0.18600
F130        F  0.51889172  0.17264242  0.07823572    -0.19100
C131        C  0.06339387  0.32218807  0.03624177    -0.20500
C132        C  0.05605326  0.33907099  0.49454498    -0.08600
C133        C  0.54983739  0.32031611  0.45435696     0.30300
C134        C  0.54591651  0.28585531  0.45703448    -0.20500
C135        C  0.04700522  0.26844711  0.49999746    -0.08600
C136        C  0.05981659  0.28776163  0.03916335     0.30300
F137        F  0.06261942  0.27489536  0.08206648    -0.19100
H138        H  0.06990013  0.33586100  0.06769374     0.18600
H139        H  0.54091636  0.27287168  0.42481355     0.18600
F140        F  0.54563132  0.33517231  0.41245202    -0.19100
C141        C  0.16366096  0.24761435  0.40971944    -0.20500
C142        C  0.17184915  0.22185513  0.37835223    -0.08600
C143        C  0.14919345  0.19178522  0.38575237     0.30300
C144        C  0.12032827  0.18738162  0.42406579    -0.20500
C145        C  0.10935272  0.21320801  0.45613919    -0.08600
C146        C  0.13407014  0.24346030  0.44810386     0.30300
F147        F  0.13781349  0.26692019  0.48122401    -0.19100
H148        H  0.18265429  0.27059289  0.40623814     0.18600
H149        H  0.10721173  0.16259292  0.42764837     0.18600
F150        F  0.15711524  0.16544626  0.35753647    -0.19100
C151        C  0.10055290  0.21547179  0.09096060    -0.20500
C152        C  0.11573663  0.21338402  0.04435306    -0.08600
C153        C  0.16664928  0.21290494  0.03915996     0.30300
C154        C  0.19715301  0.21776290  0.07644871    -0.20500
C155        C  0.17989021  0.22038506  0.12120229    -0.08600
C156        C  0.13135760  0.21892676  0.12831884     0.30300
F157        F  0.11326976  0.22189229  0.17154933    -0.19100
H158        H  0.06481575  0.21650944  0.10086770     0.18600
H159        H  0.23506677  0.21727071  0.07052818     0.18600
F160        F  0.18893487  0.20417564  0.99948204    -0.19100
C161        C  0.10978809  0.14561473  0.01220746    -0.20500
C162        C  0.07033711  0.16742386  0.50464274    -0.08600
C163        C  0.02615652  0.15113476  0.49667971     0.30300
C164        C  0.02322740  0.11659476  0.49489362    -0.20500
C165        C  0.06309263  0.09617989  0.50131588    -0.08600
C166        C  0.10650163  0.11117643  0.01052338     0.30300
F167        F  0.14645314  0.09270166  0.01776251    -0.19100
H168        H  0.14480117  0.15477823  0.01768374     0.18600
H169        H  0.98889189  0.10577637  0.48887497     0.18600
F170        F  0.98404119  0.16734237  0.49411941    -0.19100
C171        C  0.07980463  0.20639335  0.50235627    -0.01700
C172        C  0.03040061  0.23101903  0.00327755    -0.01700
Zn173      Zn  0.30186610  0.25323902  0.69791512     1.49700
Zn174      Zn  0.24861050  0.19653512  0.75218033     1.49400
Zn175      Zn  0.36216355  0.19951031  0.75400868     1.49100
Zn176      Zn  0.29925124  0.25463853  0.80734754     1.49500
O177        O  0.30300451  0.22579446  0.75306560    -1.83400
O178        O  0.24713526  0.24297404  0.65690379    -0.74000
O179        O  0.27025992  0.14848351  0.75331190    -0.73800
O180        O  0.40166815  0.20728210  0.69661469    -0.73300
O181        O  0.20846467  0.20395497  0.69498867    -0.74000
O182        O  0.35892352  0.24542422  0.65940250    -0.73600
O183        O  0.34864804  0.15083290  0.75589819    -0.74200
O184        O  0.35441718  0.24541895  0.84916718    -0.73600
O185        O  0.20771898  0.20429699  0.80802541    -0.74300
O186        O  0.40036405  0.20971166  0.81111688    -0.73700
O187        O  0.23987806  0.24663089  0.84470023    -0.74200
O188        O  0.30209793  0.30304099  0.78993660    -0.74100
O189        O  0.30071618  0.30140479  0.71344508    -0.73900
C190        C  0.21320892  0.22279602  0.66003000     0.77900
C191        C  0.31081103  0.13414073  0.75507854     0.78400
C192        C  0.39518237  0.22654280  0.66219907     0.77300
C193        C  0.39204810  0.22777884  0.84632397     0.77700
C194        C  0.20797198  0.22476662  0.84143194     0.78900
C195        C  0.30215743  0.31766090  0.75097171     0.77900
C196        C  0.32530903  0.98712214  0.74597250    -0.01700
C197        C  0.27643977  0.46299453  0.74725925    -0.01700
Zn198      Zn  0.04959325  0.44085599  0.94140373     1.49700
Zn199      Zn  0.99572566  0.99911145  0.99558652     1.49400
Zn200      Zn  0.04635843  0.43927815  0.55122585     1.49100
Zn201      Zn  0.10947656  0.49247067  0.99934829     1.49500
O202        O  0.05008314  0.46799684  0.99697515    -1.83400
O203        O  0.99148091  0.45077941  0.90321941    -0.74000
O204        O  0.45418028  0.49222975  0.55109446    -0.73800
O205        O  0.05016945  0.39115630  0.53270860    -0.73300
O206        O  0.45494845  0.49274353  0.93843850    -0.74000
O207        O  0.05297237  0.39175240  0.95622033    -0.73600
O208        O  0.98572325  0.44838176  0.58685060    -0.74200
O209        O  0.14619687  0.48231888  0.55676853    -0.73600
O210        O  0.01793513  0.04665753  0.99700638    -0.74300
O211        O  0.10135571  0.44689294  0.59466960    -0.73700
O212        O  0.09623385  0.04150501  0.00014713    -0.74200
O213        O  0.15173348  0.48273950  0.94480862    -0.74100
O214        O  0.10554097  0.45119957  0.90154629    -0.73900
C215        C  0.45802022  0.47229517  0.90505861     0.77900
C216        C  0.45380556  0.47102305  0.58370467     0.78400
C217        C  0.05315508  0.37591416  0.99430583     0.77300
C218        C  0.13851007  0.46429787  0.59189913     0.77700
C219        C  0.05884643  0.05953898  0.99928992     0.78900
C220        C  0.14364537  0.46703004  0.90769931     0.77900
C221        C  0.16251649  0.47885780  0.82681035    -0.20500
C222        C  0.17790370  0.46822361  0.86973290    -0.08600
C223        C  0.22498758  0.45850699  0.87521302     0.30300
C224        C  0.25566473  0.45800485  0.83727423    -0.20500
C225        C  0.24206983  0.46813623  0.79182388    -0.08600
C226        C  0.19296808  0.47954391  0.78911444     0.30300
F227        F  0.17140719  0.49156707  0.75054056    -0.19100
H228        H  0.12601326  0.48703905  0.82227457     0.18600
H229        H  0.29031272  0.45007645  0.84625749     0.18600
F230        F  0.24120043  0.44822949  0.91709420    -0.19100
C231        C  0.20964608  0.48745432  0.63088158    -0.20500
C232        C  0.17346350  0.46409650  0.63017971    -0.08600
C233        C  0.17069780  0.44155132  0.66670527     0.30300
C234        C  0.20371480  0.44237046  0.70241771    -0.20500
C235        C  0.24129603  0.46588159  0.70431319    -0.08600
C236        C  0.24238399  0.48881437  0.66712044     0.30300
F237        F  0.27133192  0.01466435  0.66594377    -0.19100
H238        H  0.21187372  0.00579955  0.60370252     0.18600
H239        H  0.19962973  0.42442383  0.72994093     0.18600
F240        F  0.13612304  0.41858021  0.66835919    -0.19100
C241        C  0.37937151  0.49020721  0.87147188    -0.20500
C242        C  0.42344159  0.47426505  0.86641805    -0.08600
C243        C  0.43639926  0.46307658  0.82253505     0.30300
C244        C  0.40613639  0.46767216  0.78500305    -0.20500
C245        C  0.35902827  0.48034199  0.78934683    -0.08600
C246        C  0.34825787  0.49387127  0.83386399     0.28900
F247        F  0.30879981  0.51284176  0.84092219    -0.19100
H248        H  0.36931283  0.50073732  0.90444815     0.18600
H249        H  0.42320605  0.96356267  0.75270157     0.18600
F250        F  0.98034936  0.45012299  0.81462540    -0.19100
C251        C  0.36360908  0.50694111  0.66690862    -0.20500
C252        C  0.35455925  0.48058975  0.69870702    -0.08600
C253        C  0.37726314  0.44966643  0.68662571     0.30300
C254        C  0.40704855  0.44656176  0.64820819    -0.20500
C255        C  0.41663777  0.47353762  0.61977377    -0.08600
C256        C  0.39346238  0.50362416  0.62886101     0.30300
F257        F  0.40164379  0.53084534  0.60260283    -0.19100
H258        H  0.34882744  0.53152801  0.67083278     0.18600
H259        H  0.42512915  0.42305843  0.64239567     0.18600
F260        F  0.37951797  0.42343737  0.71559061    -0.19100
C261        C  0.29176524  0.37031955  0.70739946    -0.20500
C262        C  0.30307458  0.35425283  0.74871866    -0.08600
C263        C  0.31772135  0.37353755  0.78609574     0.30300
C264        C  0.31491978  0.40816123  0.78360954    -0.20500
C265        C  0.29331419  0.42493164  0.74572778    -0.08600
C266        C  0.28911853  0.40472752  0.70506966     0.30300
F267        F  0.28490610  0.41793884  0.66204898    -0.19100
H268        H  0.28506175  0.35627053  0.67631485     0.18600
H269        H  0.33342784  0.42089005  0.81021134     0.18600
F270        F  0.33681503  0.35910847  0.82433771    -0.19100
C271        C  0.35935159  0.04579331  0.75433248    -0.20500
C272        C  0.31787019  0.02619325  0.75010677    -0.08600
C273        C  0.27440897  0.04419932  0.75076746     0.30300
C274        C  0.27266428  0.07876517  0.75340237    -0.20500
C275        C  0.31394131  0.09735298  0.75552980    -0.08600
C276        C  0.35762767  0.08033328  0.75656269     0.30300
F277        F  0.39908497  0.09685060  0.75867876    -0.19100
H278        H  0.39414538  0.03411962  0.75405546     0.18600
H279        H  0.23829535  0.09108608  0.75243627     0.18600
F280        F  0.23281987  0.02987199  0.74508515    -0.19100
C281        C  0.46540771  0.20641691  0.88513878    -0.20500
C282        C  0.42660693  0.22814567  0.88491871    -0.08600
C283        C  0.42149447  0.25004449  0.92184383     0.30300
C284        C  0.45439080  0.24986304  0.95774065    -0.20500
C285        C  0.49407495  0.22749299  0.96043372    -0.08600
C286        C  0.49825618  0.20599549  0.92133547     0.30300
F287        F  0.53114673  0.18224808  0.91720447    -0.19100
H288        H  0.47031147  0.18895345  0.85712319     0.18600
H289        H  0.44927291  0.26972582  0.98140248     0.18600
F290        F  0.38553512  0.27279297  0.92294915    -0.19100
C291        C  0.46898148  0.25624910  0.56247649    -0.20500
C292        C  0.49678005  0.22802772  0.54850328    -0.08600
C293        C  0.48949129  0.19919381  0.57709606     0.30300
C294        C  0.45668076  0.19907232  0.61326374    -0.20500
C295        C  0.42984146  0.22711546  0.62415574    -0.08600
C296        C  0.43645965  0.25583562  0.59846681     0.30300
F297        F  0.41247105  0.28427822  0.60892678    -0.19100
H298        H  0.47245746  0.28026432  0.54680810     0.18600
H299        H  0.45333200  0.17683220  0.63395340     0.18600
F300        F  0.51889006  0.17264138  0.57823344    -0.19100
C301        C  0.06339427  0.32218823  0.53624251    -0.20500
C302        C  0.05605267  0.33907088  0.99454441    -0.08600
C303        C  0.54983589  0.32031606  0.95435643     0.30300
C304        C  0.54591445  0.28585525  0.95703400    -0.20500
C305        C  0.04700390  0.26844700  0.99999686    -0.08600
C306        C  0.05981764  0.28776169  0.53916400     0.30300
F307        F  0.06262110  0.27489513  0.58206696    -0.19100
H308        H  0.06989997  0.33586121  0.56769450     0.18600
H309        H  0.54091360  0.27287166  0.92481317     0.18600
F310        F  0.54562949  0.33517229  0.91245154    -0.19100
C311        C  0.16365876  0.24761405  0.90971763    -0.20500
C312        C  0.17184675  0.22185460  0.87835083    -0.08600
C313        C  0.14919065  0.19178488  0.88575118     0.30300
C314        C  0.12032632  0.18738143  0.92406520    -0.20500
C315        C  0.10935143  0.21320793  0.95613863    -0.08600
C316        C  0.13406833  0.24346033  0.94810233     0.30300
F317        F  0.13781191  0.26692062  0.98122186    -0.19100
H318        H  0.18265219  0.27059259  0.90623586     0.18600
H319        H  0.10721012  0.16259262  0.92764828     0.18600
F320        F  0.15711160  0.16544595  0.85753501    -0.19100
C321        C  0.10055261  0.21547077  0.59096082    -0.20500
C322        C  0.11573673  0.21338310  0.54435342    -0.08600
C323        C  0.16664941  0.21290343  0.53916064     0.30300
C324        C  0.19715292  0.21776111  0.57644948    -0.20500
C325        C  0.17988979  0.22038364  0.62120283    -0.08600
C326        C  0.13135709  0.21892571  0.62831922     0.30300
F327        F  0.11326908  0.22189149  0.67154962    -0.19100
H328        H  0.06481523  0.21650823  0.60086765     0.18600
H329        H  0.23506676  0.21726851  0.57052921     0.18600
F330        F  0.18893508  0.20417370  0.49948294    -0.19100
C331        C  0.10978708  0.14561412  0.51220792    -0.20500
C332        C  0.07033739  0.16742404  0.00464371    -0.08600
C333        C  0.02615678  0.15113455  0.99668262     0.30300
C334        C  0.02322815  0.11659453  0.99489725    -0.20500
C335        C  0.06309404  0.09617999  0.00131769    -0.08600
C336        C  0.10649995  0.11117589  0.51052386     0.30300
F337        F  0.14645045  0.09270066  0.51776606    -0.19100
H338        H  0.14480010  0.15477713  0.51768600     0.18600
H339        H  0.98889252  0.10577590  0.98888012     0.18600
F340        F  0.98404118  0.16734186  0.99412264    -0.19100
C341        C  0.07979466  0.70639628  0.00232501    -0.01700
C342        C  0.03039045  0.73102121  0.50324818    -0.01700
Zn343      Zn  0.30185232  0.75324851  0.19789013     1.49700
Zn344      Zn  0.24860036  0.69653359  0.25214293     1.49400
Zn345      Zn  0.36215199  0.69951673  0.25397833     1.49100
Zn346      Zn  0.29923564  0.75463562  0.30732211     1.49500
O347        O  0.30299074  0.72579728  0.25303511    -1.83400
O348        O  0.24711844  0.74298795  0.15687787    -0.74000
O349        O  0.27025522  0.64848193  0.25326832    -0.73800
O350        O  0.40165185  0.70728785  0.19658270    -0.73300
O351        O  0.20845760  0.70395731  0.19494961    -0.74000
O352        O  0.35891049  0.74543421  0.15937486    -0.73600
O353        O  0.34864217  0.65083905  0.25586741    -0.74200
O354        O  0.35440280  0.74541967  0.34914173    -0.73600
O355        O  0.20770467  0.70429025  0.30798822    -0.74300
O356        O  0.40035624  0.70972131  0.31108344    -0.73700
O357        O  0.23986420  0.74662212  0.34466825    -0.74200
O358        O  0.30207298  0.80303858  0.28992372    -0.74100
O359        O  0.30070153  0.80141368  0.21343169    -0.73900
C360        C  0.21319665  0.72280543  0.15999742     0.77900
C361        C  0.31080901  0.63414301  0.25503977     0.78400
C362        C  0.39516703  0.72654998  0.16216865     0.77300
C363        C  0.39203865  0.72778534  0.34629328     0.77700
C364        C  0.20795804  0.72475850  0.34139670     0.78900
C365        C  0.30213538  0.81766427  0.25096354     0.77900
C366        C  0.32534490  0.48712467  0.24593487    -0.01700
C367        C  0.27640355  0.96299813  0.24729504    -0.01700
Zn368      Zn  0.04955217  0.94086173  0.44143539     1.49700
Zn369      Zn  0.99575724  0.49910931  0.49554745     1.49400
Zn370      Zn  0.04632742  0.93927278  0.05125704     1.49100
Zn371      Zn  0.10944135  0.99246649  0.49938202     1.49500
O372        O  0.05004574  0.96799663  0.49701030    -1.83400
O373        O  0.99143339  0.95078148  0.40326340    -0.74000
O374        O  0.45415592  0.99222882  0.05113832    -0.73800
O375        O  0.05014773  0.89115200  0.03272963    -0.73300
O376        O  0.45490537  0.99274777  0.43848157    -0.74000
O377        O  0.05294404  0.89175922  0.45624157    -0.73600
O378        O  0.98569029  0.94837281  0.08688360    -0.74200
O379        O  0.14616361  0.98231668  0.05680411    -0.73600
O380        O  0.01795986  0.54665569  0.49696817    -0.74300
O381        O  0.10132389  0.94688905  0.09470337    -0.73700
O382        O  0.09625924  0.54150991  0.50011394    -0.74200
O383        O  0.15169741  0.98273304  0.44484430    -0.74100
O384        O  0.10549204  0.95121037  0.40157093    -0.73900
C385        C  0.45797351  0.97229759  0.40510346     0.77900
C386        C  0.45377746  0.97101828  0.08374398     0.78400
C387        C  0.05313450  0.87591597  0.49432260     0.77300
C388        C  0.13847679  0.96429581  0.09193456     0.77700
C389        C  0.05886827  0.55954068  0.49925532     0.78900
C390        C  0.14360245  0.96703264  0.40772918     0.77900
C391        C  0.16248111  0.97886998  0.32684441    -0.20500
C392        C  0.17786230  0.96822600  0.36976445    -0.08600
C393        C  0.22494161  0.95849914  0.37524408     0.30300
C394        C  0.25562284  0.95799927  0.33730786    -0.20500
C395        C  0.24203282  0.96813944  0.29185933    -0.08600
C396        C  0.19293492  0.97955478  0.28914988     0.30300
F397        F  0.17137866  0.99158223  0.25057595    -0.19100
H398        H  0.12598112  0.98705808  0.32230910     0.18600
H399        H  0.29026550  0.95006799  0.34629173     0.18600
F400        F  0.24114745  0.94820897  0.41712208    -0.19100
C401        C  0.20960703  0.98745883  0.13092097    -0.20500
C402        C  0.17342814  0.96409776  0.13021702    -0.08600
C403        C  0.17066394  0.94155235  0.16674226     0.30300
C404        C  0.20367762  0.94237497  0.20245707    -0.20500
C405        C  0.24125797  0.96588687  0.20435168    -0.08600
C406        C  0.24234486  0.98882011  0.16716013     0.30300
F407        F  0.27137018  0.51466078  0.16590393    -0.19100
H408        H  0.21191547  0.50579456  0.10366342     0.18600
H409        H  0.19959414  0.92442794  0.22998007     0.18600
F410        F  0.13609593  0.91857612  0.16839174    -0.19100
C411        C  0.37932270  0.99020514  0.37151499    -0.20500
C412        C  0.42339506  0.97426589  0.36646310    -0.08600
C413        C  0.43635717  0.96307872  0.32258068     0.30300
C414        C  0.40609721  0.96767312  0.28504690    -0.20500
C415        C  0.35898814  0.98034066  0.28938757    -0.08600
C416        C  0.34821172  0.99386804  0.33390467     0.28900
F417        F  0.30875226  0.01283780  0.34095947    -0.19100
H418        H  0.36926081  0.00073432  0.40449084     0.18600
H419        H  0.42324685  0.46356960  0.25265565     0.18600
F420        F  0.98030970  0.95012875  0.31467301    -0.19100
C421        C  0.36357702  0.00693791  0.16694504    -0.20500
C422        C  0.35452743  0.98058794  0.19874555    -0.08600
C423        C  0.37723438  0.94966473  0.18666789     0.30300
C424        C  0.40702008  0.94655858  0.14825035    -0.20500
C425        C  0.41661051  0.97353372  0.11981479    -0.08600
C426        C  0.39343562  0.00362072  0.12890114     0.30300
F427        F  0.40162305  0.03084246  0.10264609    -0.19100
H428        H  0.34879437  0.03152470  0.17086716     0.18600
H429        H  0.42510050  0.92305509  0.14243944     0.18600
F430        F  0.37948984  0.92343704  0.21563542    -0.19100
C431        C  0.29174161  0.87032959  0.20740838    -0.20500
C432        C  0.30304660  0.85425651  0.24872366    -0.08600
C433        C  0.31768094  0.87353552  0.28611119     0.30300
C434        C  0.31487766  0.90815969  0.28363608    -0.20500
C435        C  0.29327697  0.92493522  0.24575587    -0.08600
C436        C  0.28908828  0.90473771  0.20509065     0.30300
F437        F  0.28487708  0.91795617  0.16207412    -0.19100
H438        H  0.28504577  0.85628553  0.17631781     0.18600
H439        H  0.33338209  0.92088380  0.31024191     0.18600
F440        F  0.33676432  0.85910116  0.32435433    -0.19100
C441        C  0.35937240  0.54580084  0.25429472    -0.20500
C442        C  0.31789660  0.52619531  0.25006883    -0.08600
C443        C  0.27443078  0.54419624  0.25072681     0.30300
C444        C  0.27267664  0.57876213  0.25335992    -0.20500
C445        C  0.31394839  0.59735531  0.25548850    -0.08600
C446        C  0.35763911  0.58034096  0.25652192     0.30300
F447        F  0.39909199  0.59686377  0.25863473    -0.19100
H448        H  0.39416909  0.53413157  0.25401896     0.18600
H449        H  0.23830475  0.59107871  0.25239214     0.18600
F450        F  0.23284576  0.52986382  0.24504250    -0.19100
C451        C  0.46540384  0.70642780  0.38510276    -0.20500
C452        C  0.42660081  0.72815461  0.38488534    -0.08600
C453        C  0.42148842  0.75005280  0.42181135     0.30300
C454        C  0.45438326  0.74986922  0.45770986    -0.20500
C455        C  0.49406775  0.72749928  0.46040142    -0.08600
C456        C  0.49825229  0.70600561  0.42129951     0.30300
F457        F  0.53114535  0.68226006  0.41716580    -0.19100
H458        H  0.47030882  0.68896590  0.35708553     0.18600
H459        H  0.44926347  0.76972959  0.48137565     0.18600
F460        F  0.38553025  0.77280225  0.42291606    -0.19100
C461        C  0.46897019  0.75625216  0.06244688    -0.20500
C462        C  0.49676472  0.72802889  0.04847147    -0.08600
C463        C  0.48946652  0.69919373  0.07705889     0.30300
C464        C  0.45665590  0.69907424  0.11322691    -0.20500
C465        C  0.42982496  0.72712036  0.12412406    -0.08600
C466        C  0.43645018  0.75584104  0.09843888     0.30300
F467        F  0.41247109  0.78428635  0.10890491    -0.19100
H468        H  0.47244831  0.78026746  0.04677903     0.18600
H469        H  0.45330054  0.67683294  0.13391303     0.18600
F470        F  0.51885537  0.67263617  0.07819123    -0.19100
C471        C  0.06338620  0.82218361  0.03623930    -0.20500
C472        C  0.05604132  0.83907325  0.49454881    -0.08600
C473        C  0.54982718  0.82032511  0.45435413     0.30300
C474        C  0.54590431  0.78586416  0.45702040    -0.20500
C475        C  0.04699590  0.76844893  0.49997749    -0.08600
C476        C  0.05981111  0.78775667  0.03914920     0.30300
F477        F  0.06261295  0.77488374  0.08204867    -0.19100
H478        H  0.06989212  0.83585149  0.06769564     0.18600
H479        H  0.54090255  0.77288600  0.42479542     0.18600
F480        F  0.54562456  0.83518801  0.41245348    -0.19100
C481        C  0.16363627  0.74761172  0.40967115    -0.20500
C482        C  0.17183342  0.72184698  0.37831500    -0.08600
C483        C  0.14918948  0.69177459  0.38572729     0.30300
C484        C  0.12032310  0.68737509  0.42404074    -0.20500
C485        C  0.10934074  0.71320651  0.45610531    -0.08600
C486        C  0.13404905  0.74346068  0.44805830     0.30300
F487        F  0.13779384  0.76692495  0.48117207    -0.19100
H488        H  0.18262253  0.77059249  0.40618069     0.18600
H489        H  0.10720846  0.66258619  0.42762923     0.18600
F490        F  0.15712513  0.66543033  0.35752428    -0.19100
C491        C  0.10054249  0.71546176  0.09092816    -0.20500
C492        C  0.11572624  0.71339073  0.04431977    -0.08600
C493        C  0.16663846  0.71292560  0.03912501     0.30300
C494        C  0.19714016  0.71778697  0.07641436    -0.20500
C495        C  0.17987719  0.72039550  0.12116951    -0.08600
C496        C  0.13134580  0.71891980  0.12828680     0.30300
F497        F  0.11325729  0.72186880  0.17151900    -0.19100
H498        H  0.06480439  0.71648175  0.10083471     0.18600
H499        H  0.23505374  0.71730493  0.07049297     0.18600
F500        F  0.18892735  0.70419968  0.99944750    -0.19100
C501        C  0.10978739  0.64562183  0.01219484    -0.20500
C502        C  0.07033374  0.66742662  0.50461755    -0.08600
C503        C  0.02616012  0.65113356  0.49663855     0.30300
C504        C  0.02323931  0.61659302  0.49485078    -0.20500
C505        C  0.06310714  0.59618217  0.50128603    -0.08600
C506        C  0.10650913  0.61118319  0.01050954     0.30300
F507        F  0.14646151  0.59271245  0.01776375    -0.19100
H508        H  0.14479697  0.65478940  0.01768164     0.18600
H509        H  0.98890845  0.60577104  0.48882042     0.18600
F510        F  0.98404271  0.66733794  0.49406919    -0.19100
C511        C  0.07979520  0.70639601  0.50232513    -0.01700
C512        C  0.03038952  0.73102098  0.00324783    -0.01700
Zn513      Zn  0.30185190  0.75324717  0.69789046     1.49700
Zn514      Zn  0.24859949  0.69653203  0.75214288     1.49400
Zn515      Zn  0.36215103  0.69951478  0.75397757     1.49100
Zn516      Zn  0.29923457  0.75463367  0.80732193     1.49500
O517        O  0.30299002  0.72579556  0.75303493    -1.83400
O518        O  0.24711816  0.74298648  0.65687840    -0.74000
O519        O  0.27025379  0.64848033  0.75326900    -0.73800
O520        O  0.40165107  0.70728616  0.69658182    -0.73300
O521        O  0.20845719  0.70395571  0.69494979    -0.74000
O522        O  0.35891045  0.74543347  0.65937507    -0.73600
O523        O  0.34864079  0.65083728  0.75586644    -0.74200
O524        O  0.35440176  0.74541744  0.84914123    -0.73600
O525        O  0.20770265  0.70428907  0.80798717    -0.74300
O526        O  0.40035514  0.70971887  0.81108314    -0.73700
O527        O  0.23986297  0.74662037  0.84466766    -0.74200
O528        O  0.30207090  0.80303683  0.78992417    -0.74100
O529        O  0.30069973  0.80141225  0.71343221    -0.73900
C530        C  0.21319632  0.72280400  0.65999787     0.77900
C531        C  0.31080754  0.63414133  0.75503974     0.78400
C532        C  0.39516673  0.72654893  0.66216834     0.77300
C533        C  0.39203747  0.72778295  0.84629295     0.77700
C534        C  0.20795609  0.72475735  0.84139559     0.78900
C535        C  0.30213288  0.81766272  0.75096416     0.77900
C536        C  0.32534383  0.48712307  0.74593494    -0.01700
C537        C  0.27640207  0.96299700  0.74729478    -0.01700
Zn538      Zn  0.04955313  0.94086175  0.94143583     1.49700
Zn539      Zn  0.99575883  0.49910936  0.99554704     1.49400
Zn540      Zn  0.04632609  0.93927294  0.55125677     1.49100
Zn541      Zn  0.10944286  0.99246648  0.99938313     1.49500
O542        O  0.05004710  0.96799665  0.99701075    -1.83400
O543        O  0.99143467  0.95078142  0.90326314    -0.74000
O544        O  0.45415453  0.99222830  0.55113869    -0.73800
O545        O  0.05014752  0.89115220  0.53272980    -0.73300
O546        O  0.45490698  0.99274803  0.93848069    -0.74000
O547        O  0.05294449  0.89175922  0.95624143    -0.73600
O548        O  0.98568884  0.94837209  0.58688334    -0.74200
O549        O  0.14616211  0.98231733  0.55680341    -0.73600
O550        O  0.01796182  0.54665567  0.99696821    -0.74300
O551        O  0.10132235  0.94688978  0.59470281    -0.73700
O552        O  0.09626110  0.54151010  0.00011612    -0.74200
O553        O  0.15169840  0.98273364  0.94484499    -0.74100
O554        O  0.10549302  0.95121056  0.90157211    -0.73900
C555        C  0.45797482  0.97229756  0.90510284     0.77900
C556        C  0.45377602  0.97101749  0.58374396     0.78400
C557        C  0.05313457  0.87591586  0.99432233     0.77300
C558        C  0.13847523  0.96429654  0.59193398     0.77700
C559        C  0.05887012  0.55954078  0.99925663     0.78900
C560        C  0.14360321  0.96703313  0.90773002     0.77900
C561        C  0.16248042  0.97886940  0.82684475    -0.20500
C562        C  0.17786252  0.96822646  0.86976498    -0.08600
C563        C  0.22494206  0.95850021  0.87524441     0.30300
C564        C  0.25562264  0.95799991  0.83730784    -0.20500
C565        C  0.24203172  0.96813880  0.79185910    -0.08600
C566        C  0.19293363  0.97955372  0.78914980     0.30300
F567        F  0.17137684  0.99158074  0.75057588    -0.19100
H568        H  0.12598022  0.98705709  0.82230966     0.18600
H569        H  0.29026571  0.95006917  0.84629164     0.18600
F570        F  0.24114876  0.94821114  0.91712261    -0.19100
C571        C  0.20960596  0.98745893  0.63092063    -0.20500
C572        C  0.17342659  0.96409827  0.63021648    -0.08600
C573        C  0.17066208  0.94155269  0.66674152     0.30300
C574        C  0.20367596  0.94237466  0.70245618    -0.20500
C575        C  0.24125670  0.96588619  0.70435117    -0.08600
C576        C  0.24234393  0.98881968  0.66715978     0.30300
F577        F  0.27136983  0.51466000  0.66590371    -0.19100
H578        H  0.21191489  0.50579461  0.60366330     0.18600
H579        H  0.19959208  0.92442752  0.72997906     0.18600
F580        F  0.13609337  0.91857697  0.66839097    -0.19100
C581        C  0.37932432  0.99020578  0.87151427    -0.20500
C582        C  0.42339581  0.97426532  0.86646270    -0.08600
C583        C  0.43635598  0.96307568  0.82258087     0.30300
C584        C  0.40609544  0.96766960  0.78504728    -0.20500
C585        C  0.35898726  0.98033887  0.78938779    -0.08600
C586        C  0.34821249  0.99386784  0.83390445     0.28900
F587        F  0.30875352  0.01283806  0.84095934    -0.19100
H588        H  0.36926356  0.00073639  0.90448963     0.18600
H589        H  0.42324440  0.46356417  0.75265611     0.18600
F590        F  0.98030719  0.95012337  0.81467331    -0.19100
C591        C  0.36357615  0.00693673  0.66694550    -0.20500
C592        C  0.35452612  0.98058654  0.69874547    -0.08600
C593        C  0.37723203  0.94966317  0.68666679     0.30300
C594        C  0.40701778  0.94655720  0.64824926    -0.20500
C595        C  0.41660902  0.97353264  0.61981462    -0.08600
C596        C  0.39343478  0.00361973  0.62890169     0.30300
F597        F  0.40162301  0.03084176  0.60264753    -0.19100
H598        H  0.34879384  0.03152357  0.67086788     0.18600
H599        H  0.42509762  0.92305352  0.64243760     0.18600
F600        F  0.37948629  0.92343491  0.71563328    -0.19100
C601        C  0.29173848  0.87032805  0.70740904    -0.20500
C602        C  0.30304310  0.85425502  0.74872448    -0.08600
C603        C  0.31767656  0.87353412  0.78611230     0.30300
C604        C  0.31487418  0.90815826  0.78363664    -0.20500
C605        C  0.29327452  0.92493390  0.74575602    -0.08600
C606        C  0.28908541  0.90473618  0.70509100     0.30300
F607        F  0.28487457  0.91795444  0.66207431    -0.19100
H608        H  0.28504288  0.85628393  0.67631842     0.18600
H609        H  0.33337859  0.92088224  0.81024270     0.18600
F610        F  0.33675800  0.85909986  0.82435642    -0.19100
C611        C  0.35937103  0.54579926  0.75429534    -0.20500
C612        C  0.31789534  0.52619368  0.75006900    -0.08600
C613        C  0.27442939  0.54419460  0.75072682     0.30300
C614        C  0.27267520  0.57876046  0.75335979    -0.20500
C615        C  0.31394686  0.59735365  0.75548868    -0.08600
C616        C  0.35763760  0.58033935  0.75652268     0.30300
F617        F  0.39909035  0.59686223  0.75863626    -0.19100
H618        H  0.39416781  0.53413001  0.75401987     0.18600
H619        H  0.23830324  0.59107704  0.75239155     0.18600
F620        F  0.23284436  0.52986227  0.74504200    -0.19100
C621        C  0.46540229  0.70642537  0.88510325    -0.20500
C622        C  0.42659942  0.72815228  0.88488519    -0.08600
C623        C  0.42148688  0.75005075  0.92181085     0.30300
C624        C  0.45438209  0.74986799  0.95770900    -0.20500
C625        C  0.49406673  0.72749825  0.96040112    -0.08600
C626        C  0.49825070  0.70600361  0.92130009     0.30300
F627        F  0.53114303  0.68225750  0.91716736    -0.19100
H628        H  0.47030706  0.68896297  0.85708653     0.18600
H629        H  0.44926234  0.76972881  0.98137401     0.18600
F630        F  0.38552818  0.77279976  0.92291553    -0.19100
C631        C  0.46897169  0.75625230  0.56244816    -0.20500
C632        C  0.49676542  0.72802890  0.54847167    -0.08600
C633        C  0.48946587  0.69919320  0.57705763     0.30300
C634        C  0.45665490  0.69907338  0.61322537    -0.20500
C635        C  0.42982496  0.72711970  0.62412386    -0.08600
C636        C  0.43645143  0.75584090  0.59844008     0.30300
F637        F  0.41247292  0.78428627  0.60890707    -0.19100
H638        H  0.47245026  0.78026776  0.54678095     0.18600
H639        H  0.45329853  0.67683162  0.63391036     0.18600
F640        F  0.51885389  0.67263521  0.57818904    -0.19100
C641        C  0.06338672  0.82218379  0.53623996    -0.20500
C642        C  0.05604078  0.83907313  0.99454824    -0.08600
C643        C  0.54982566  0.82032512  0.95435360     0.30300
C644        C  0.54590215  0.78586416  0.95701987    -0.20500
C645        C  0.04699446  0.76844883  0.99997690    -0.08600
C646        C  0.05981219  0.78775679  0.53914986     0.30300
F647        F  0.06261434  0.77488366  0.58204920    -0.19100
H648        H  0.06989224  0.83585176  0.56769640     0.18600
H649        H  0.54089981  0.77288605  0.92479498     0.18600
F650        F  0.54562305  0.83518815  0.91245302    -0.19100
C651        C  0.16363388  0.74761152  0.90966905    -0.20500
C652        C  0.17183085  0.72184647  0.87831334    -0.08600
C653        C  0.14918651  0.69177431  0.88572590     0.30300
C654        C  0.12032093  0.68737500  0.92403994    -0.20500
C655        C  0.10933930  0.71320654  0.95610456    -0.08600
C656        C  0.13404705  0.74346079  0.94805656     0.30300
F657        F  0.13779204  0.76692542  0.98116979    -0.19100
H658        H  0.18262013  0.77059220  0.90617804     0.18600
H659        H  0.10720663  0.66258607  0.92762898     0.18600
F660        F  0.15712122  0.66543002  0.85752272    -0.19100
C661        C  0.10054236  0.71546076  0.59092849    -0.20500
C662        C  0.11572651  0.71338975  0.54432024    -0.08600
C663        C  0.16663880  0.71292409  0.53912579     0.30300
C664        C  0.19714028  0.71778540  0.57641516    -0.20500
C665        C  0.17987703  0.72039423  0.62117006    -0.08600
C666        C  0.13134556  0.71891881  0.62828720     0.30300
F667        F  0.11325690  0.72186824  0.67151928    -0.19100
H668        H  0.06480422  0.71648052  0.60083478     0.18600
H669        H  0.23505403  0.71730300  0.57049400     0.18600
F670        F  0.18892781  0.70419751  0.49944863    -0.19100
C671        C  0.10978639  0.64562116  0.51219543    -0.20500
C672        C  0.07033399  0.66742687  0.00461843    -0.08600
C673        C  0.02616034  0.65113337  0.99664141     0.30300
C674        C  0.02324008  0.61659283  0.99485436    -0.20500
C675        C  0.06310860  0.59618232  0.00128756    -0.08600
C676        C  0.10650737  0.61118258  0.51051033     0.30300
F677        F  0.14645876  0.59271142  0.51776765    -0.19100
H678        H  0.14479583  0.65478819  0.51768400     0.18600
H679        H  0.98890904  0.60577056  0.98882562     0.18600
F680        F  0.98404265  0.66733746  0.99407239    -0.19100
C681        C  0.57980418  0.20639357  0.00235628    -0.01700
C682        C  0.53040142  0.23101924  0.50327777    -0.01700
Zn683      Zn  0.80186664  0.25324053  0.19791497     1.49700
Zn684      Zn  0.74861140  0.19653671  0.25218023     1.49400
Zn685      Zn  0.86216435  0.19951226  0.25400947     1.49100
Zn686      Zn  0.79925219  0.25464049  0.30734771     1.49500
O687        O  0.80300518  0.22579623  0.25306581    -1.83400
O688        O  0.74713579  0.24297559  0.15690329    -0.74000
O689        O  0.77026118  0.14848518  0.25331136    -0.73800
O690        O  0.90166871  0.20728381  0.19661549    -0.73300
O691        O  0.70846517  0.20395670  0.19498846    -0.74000
O692        O  0.85892362  0.24542521  0.15940239    -0.73600
O693        O  0.84864923  0.15083467  0.25589938    -0.74200
O694        O  0.85441816  0.24542122  0.34916770    -0.73600
O695        O  0.70772085  0.20429816  0.30802619    -0.74300
O696        O  0.90036504  0.20971416  0.31111711    -0.73700
O697        O  0.73987915  0.24663262  0.34470058    -0.74200
O698        O  0.80209978  0.30304280  0.28993627    -0.74100
O699        O  0.80071808  0.30140634  0.21344471    -0.73900
C700        C  0.71320944  0.22279758  0.16002955     0.77900
C701        C  0.81081228  0.13414244  0.25507873     0.78400
C702        C  0.89518260  0.22654399  0.16219937     0.77300
C703        C  0.89204922  0.22778132  0.34632422     0.77700
C704        C  0.70797377  0.22476781  0.34143278     0.78900
C705        C  0.80215984  0.31766255  0.25097127     0.77900
C706        C  0.82531013  0.98712371  0.24597240    -0.01700
C707        C  0.77644117  0.46299575  0.24725960    -0.01700
Zn708      Zn  0.54959239  0.44085599  0.44140352     1.49700
Zn709      Zn  0.49572414  0.99911128  0.49558696     1.49400
Zn710      Zn  0.54635964  0.43927800  0.05122615     1.49100
Zn711      Zn  0.60947507  0.49247059  0.49934729     1.49500
O712        O  0.55008168  0.46799688  0.49697479    -1.83400
O713        O  0.49147970  0.45077951  0.40321996    -0.74000
O714        O  0.95418166  0.49223021  0.05109418    -0.73800
O715        O  0.55016970  0.39115610  0.03270850    -0.73300
O716        O  0.95494696  0.49274348  0.43843936    -0.74000
O717        O  0.55297185  0.39175239  0.45622052    -0.73600
O718        O  0.48572466  0.44838249  0.08685102    -0.74200
O719        O  0.64619829  0.48231821  0.05676910    -0.73600
O720        O  0.51793314  0.04665754  0.49700622    -0.74300
O721        O  0.60135717  0.44689225  0.09467015    -0.73700
O722        O  0.59623196  0.04150491  0.50014486    -0.74200
O723        O  0.65173255  0.48273911  0.44480817    -0.74100
O724        O  0.60554011  0.45119954  0.40154541    -0.73900
C725        C  0.95801893  0.47229526  0.40505938     0.77900
C726        C  0.95380702  0.47102384  0.08370484     0.78400
C727        C  0.55315509  0.37591426  0.49430615     0.77300
C728        C  0.63851156  0.46429715  0.09189966     0.77700
C729        C  0.55884453  0.05953892  0.49928845     0.78900
C730        C  0.64364469  0.46702978  0.40769873     0.77900
C731        C  0.66251720  0.47885860  0.32681024    -0.20500
C732        C  0.67790355  0.46822339  0.36973259    -0.08600
C733        C  0.72498717  0.45850607  0.37521283     0.30300
C734        C  0.75566495  0.45800440  0.33727440    -0.20500
C735        C  0.74207092  0.46813701  0.29182427    -0.08600
C736        C  0.69296937  0.47954512  0.28911471     0.30300
F737        F  0.67140903  0.49156859  0.25054076    -0.19100
H738        H  0.62601415  0.48704022  0.32227429     0.18600
H739        H  0.79031257  0.45007551  0.34625777     0.18600
F740        F  0.74119929  0.44822753  0.41709378    -0.19100
C741        C  0.70964709  0.48745431  0.13088198    -0.20500
C742        C  0.67346503  0.46409610  0.13018020    -0.08600
C743        C  0.67069963  0.44155111  0.16670607     0.30300
C744        C  0.70371640  0.44237090  0.20241864    -0.20500
C745        C  0.74129722  0.46588235  0.20431381    -0.08600
C746        C  0.74238484  0.48881495  0.16712083     0.30300
F747        F  0.77133253  0.01466493  0.16594371    -0.19100
H748        H  0.71187440  0.00579932  0.10370282     0.18600
H749        H  0.69963175  0.42442429  0.22994211     0.18600
F750        F  0.63612564  0.41857945  0.16835980    -0.19100
C751        C  0.87937009  0.49020670  0.37147264    -0.20500
C752        C  0.92344093  0.47426561  0.36641855    -0.08600
C753        C  0.93640041  0.46307945  0.32253498     0.30300
C754        C  0.90613808  0.46767557  0.28500273    -0.20500
C755        C  0.85902911  0.48034375  0.28934672    -0.08600
C756        C  0.84825724  0.49387151  0.33386427     0.28900
F757        F  0.80879882  0.51284162  0.34092240    -0.19100
H758        H  0.86931035  0.50073551  0.40444936     0.18600
H759        H  0.92320867  0.96356821  0.25270097     0.18600
F760        F  0.48035180  0.45012811  0.31462520    -0.19100
C761        C  0.86360976  0.50694224  0.16690809    -0.20500
C762        C  0.85456039  0.48059115  0.19870705    -0.08600
C763        C  0.87726533  0.44966802  0.18662671     0.30300
C764        C  0.90705089  0.44656315  0.14820934    -0.20500
C765        C  0.91663926  0.47353868  0.11977402    -0.08600
C766        C  0.89346307  0.50362506  0.12886042     0.30300
F767        F  0.90164364  0.53084590  0.10260131    -0.19100
H768        H  0.84882786  0.53152910  0.17083197     0.18600
H769        H  0.92513221  0.42306003  0.14239766     0.18600
F770        F  0.87952134  0.42343957  0.21559259    -0.19100
C771        C  0.79176827  0.37032119  0.20739896    -0.20500
C772        C  0.80307792  0.35425442  0.24871801    -0.08600
C773        C  0.81772547  0.37353908  0.28609490     0.30300
C774        C  0.81492304  0.40816276  0.28360911    -0.20500
C775        C  0.79331657  0.42493307  0.24572772    -0.08600
C776        C  0.78912141  0.40472913  0.20506936     0.30300
F777        F  0.78490873  0.41794063  0.16204882    -0.19100
H778        H  0.78506443  0.35627220  0.17631427     0.18600
H779        H  0.83343110  0.42089175  0.31021077     0.18600
F780        F  0.83682075  0.35910999  0.32433612    -0.19100
C781        C  0.85935279  0.04579493  0.25433198    -0.20500
C782        C  0.81787137  0.02619485  0.25010660    -0.08600
C783        C  0.77441021  0.04420091  0.25076733     0.30300
C784        C  0.77266550  0.07876679  0.25340227    -0.20500
C785        C  0.81394255  0.09735464  0.25552966    -0.08600
C786        C  0.85762889  0.08033492  0.25656211     0.30300
F787        F  0.89908627  0.09685222  0.25867729    -0.19100
H788        H  0.89414657  0.03412133  0.25405465     0.18600
H789        H  0.73829656  0.09108768  0.25243636     0.18600
F790        F  0.73282117  0.02987348  0.24508531    -0.19100
C791        C  0.96540915  0.20641930  0.38513820    -0.20500
C792        C  0.92660837  0.22814806  0.38491867    -0.08600
C793        C  0.92149603  0.25004658  0.42184423     0.30300
C794        C  0.95439196  0.24986423  0.45774134    -0.20500
C795        C  0.99407593  0.22749403  0.46043390    -0.08600
C796        C  0.99825771  0.20599745  0.42133471     0.30300
F797        F  0.03114895  0.18225059  0.41720264    -0.19100
H798        H  0.97031298  0.18895618  0.35712210     0.18600
H799        H  0.94927399  0.26972668  0.48140417     0.18600
F800        F  0.88553712  0.27279539  0.42294967    -0.19100
C801        C  0.96898028  0.25624910  0.06247538    -0.20500
C802        C  0.99677952  0.22802779  0.04850321    -0.08600
C803        C  0.98949195  0.19919441  0.07709737     0.30300
C804        C  0.95668167  0.19907329  0.11326522    -0.20500
C805        C  0.92984151  0.22711627  0.12415599    -0.08600
C806        C  0.93645869  0.25583600  0.09846583     0.30300
F807        F  0.91246921  0.28427848  0.10892456    -0.19100
H808        H  0.97245584  0.28026413  0.04680627     0.18600
H809        H  0.95333375  0.17683359  0.13395598     0.18600
F810        F  0.01889158  0.17264241  0.07823567    -0.19100
C811        C  0.56339385  0.32218808  0.03624181    -0.20500
C812        C  0.55605323  0.33907099  0.49454501    -0.08600
C813        C  0.04983747  0.32031611  0.45435694     0.30300
C814        C  0.04591650  0.28585532  0.45703449    -0.20500
C815        C  0.54700521  0.26844710  0.49999745    -0.08600
C816        C  0.55981668  0.28776163  0.03916337     0.30300
F817        F  0.56261958  0.27489536  0.08206650    -0.19100
H818        H  0.56990004  0.33586100  0.06769375     0.18600
H819        H  0.04091625  0.27287170  0.42481355     0.18600
F820        F  0.04563119  0.33517230  0.41245202    -0.19100
C821        C  0.66366101  0.24761434  0.40971945    -0.20500
C822        C  0.67184914  0.22185515  0.37835220    -0.08600
C823        C  0.64919354  0.19178521  0.38575239     0.30300
C824        C  0.62032840  0.18738157  0.42406583    -0.20500
C825        C  0.60935279  0.21320798  0.45613922    -0.08600
C826        C  0.63407024  0.24346027  0.44810389     0.30300
F827        F  0.63781360  0.26692017  0.48122402    -0.19100
H828        H  0.68265435  0.27059291  0.40623813     0.18600
H829        H  0.60721186  0.16259288  0.42764839     0.18600
F830        F  0.65711540  0.16544625  0.35753648    -0.19100
C831        C  0.60055289  0.21547179  0.09096061    -0.20500
C832        C  0.61573655  0.21338402  0.04435308    -0.08600
C833        C  0.66664920  0.21290494  0.03915998     0.30300
C834        C  0.69715294  0.21776290  0.07644871    -0.20500
C835        C  0.67989014  0.22038509  0.12120230    -0.08600
C836        C  0.63135750  0.21892676  0.12831885     0.30300
F837        F  0.61326962  0.22189229  0.17154932    -0.19100
H838        H  0.56481554  0.21650952  0.10086780     0.18600
H839        H  0.73506668  0.21727072  0.07052817     0.18600
F840        F  0.68893475  0.20417562  0.99948206    -0.19100
C841        C  0.60978811  0.14561474  0.01220747    -0.20500
C842        C  0.57033703  0.16742384  0.50464273    -0.08600
C843        C  0.52615650  0.15113476  0.49667970     0.30300
C844        C  0.52322732  0.11659474  0.49489361    -0.20500
C845        C  0.56309257  0.09617987  0.50131590    -0.08600
C846        C  0.60650166  0.11117643  0.01052338     0.30300
F847        F  0.64645322  0.09270169  0.01776249    -0.19100
H848        H  0.64480105  0.15477823  0.01768369     0.18600
H849        H  0.48889189  0.10577640  0.48887495     0.18600
F850        F  0.48404119  0.16734238  0.49411940    -0.19100
C851        C  0.57980461  0.20639334  0.50235626    -0.01700
C852        C  0.53040064  0.23101903  0.00327755    -0.01700
Zn853      Zn  0.80186621  0.25323903  0.69791512     1.49700
Zn854      Zn  0.74861058  0.19653511  0.75218032     1.49400
Zn855      Zn  0.86216340  0.19951030  0.75400868     1.49100
Zn856      Zn  0.79925119  0.25463854  0.80734751     1.49500
O857        O  0.80300445  0.22579448  0.75306560    -1.83400
O858        O  0.74713536  0.24297404  0.65690376    -0.74000
O859        O  0.77025987  0.14848351  0.75331189    -0.73800
O860        O  0.90166801  0.20728207  0.69661466    -0.73300
O861        O  0.70846480  0.20395497  0.69498867    -0.74000
O862        O  0.85892355  0.24542427  0.65940249    -0.73600
O863        O  0.84864796  0.15083289  0.75589820    -0.74200
O864        O  0.85441718  0.24541898  0.84916719    -0.73600
O865        O  0.70771905  0.20429694  0.80802538    -0.74300
O866        O  0.90036393  0.20971162  0.81111689    -0.73700
O867        O  0.73987804  0.24663093  0.84470008    -0.74200
O868        O  0.80209795  0.30304098  0.78993660    -0.74100
O869        O  0.80071625  0.30140480  0.71344508    -0.73900
C870        C  0.71320900  0.22279602  0.66003000     0.77900
C871        C  0.81081097  0.13414073  0.75507854     0.78400
C872        C  0.89518233  0.22654278  0.66219905     0.77300
C873        C  0.89204808  0.22777883  0.84632397     0.77700
C874        C  0.70797203  0.22476662  0.84143188     0.78900
C875        C  0.80215741  0.31766090  0.75097171     0.77900
C876        C  0.82530903  0.98712215  0.74597250    -0.01700
C877        C  0.77643970  0.46299454  0.74725927    -0.01700
Zn878      Zn  0.54959338  0.44085599  0.94140373     1.49700
Zn879      Zn  0.49572572  0.99911146  0.99558651     1.49400
Zn880      Zn  0.54635849  0.43927815  0.55122586     1.49100
Zn881      Zn  0.60947662  0.49247067  0.99934831     1.49500
O882        O  0.55008311  0.46799686  0.99697516    -1.83400
O883        O  0.49148103  0.45077947  0.90321939    -0.74000
O884        O  0.95418020  0.49222974  0.55109442    -0.73800
O885        O  0.55016960  0.39115629  0.53270870    -0.73300
O886        O  0.95494852  0.49274356  0.93843849    -0.74000
O887        O  0.55297253  0.39175240  0.95622033    -0.73600
O888        O  0.48572325  0.44838171  0.58685057    -0.74200
O889        O  0.64619676  0.48231893  0.55676852    -0.73600
O890        O  0.51793527  0.04665751  0.99700637    -0.74300
O891        O  0.60135567  0.44689299  0.59466964    -0.73700
O892        O  0.59623397  0.04150502  0.00014713    -0.74200
O893        O  0.65173346  0.48273953  0.94480864    -0.74100
O894        O  0.60554105  0.45119953  0.90154630    -0.73900
C895        C  0.95802019  0.47229518  0.90505862     0.77900
C896        C  0.95380552  0.47102305  0.58370467     0.78400
C897        C  0.55315523  0.37591417  0.99430584     0.77300
C898        C  0.63850999  0.46429792  0.59189914     0.77700
C899        C  0.55884652  0.05953898  0.99928992     0.78900
C900        C  0.64364541  0.46703003  0.90769936     0.77900
C901        C  0.66251638  0.47885782  0.82681044    -0.20500
C902        C  0.67790369  0.46822364  0.86973296    -0.08600
C903        C  0.72498754  0.45850702  0.87521303     0.30300
C904        C  0.75566465  0.45800484  0.83727419    -0.20500
C905        C  0.74206967  0.46813622  0.79182386    -0.08600
C906        C  0.69296793  0.47954391  0.78911447     0.30300
F907        F  0.67140701  0.49156708  0.75054060    -0.19100
H908        H  0.62601314  0.48703906  0.82227475     0.18600
H909        H  0.79031249  0.45007646  0.84625736     0.18600
F910        F  0.74120057  0.44822971  0.91709423    -0.19100
C911        C  0.70964603  0.48745433  0.63088158    -0.20500
C912        C  0.67346346  0.46409652  0.63017969    -0.08600
C913        C  0.67069776  0.44155133  0.66670526     0.30300
C914        C  0.70371473  0.44237047  0.70241772    -0.20500
C915        C  0.74129596  0.46588159  0.70431320    -0.08600
C916        C  0.74238395  0.48881435  0.66712042     0.30300
F917        F  0.77133180  0.01466437  0.66594378    -0.19100
H918        H  0.71187387  0.00579938  0.60370248     0.18600
H919        H  0.69962965  0.42442384  0.72994094     0.18600
F920        F  0.63612308  0.41858017  0.66835915    -0.19100
C921        C  0.87937148  0.49020718  0.87147192    -0.20500
C922        C  0.92344159  0.47426508  0.86641806    -0.08600
C923        C  0.93639926  0.46307661  0.82253505     0.30300
C924        C  0.90613632  0.46767216  0.78500307    -0.20500
C925        C  0.85902820  0.48034198  0.78934688    -0.08600
C926        C  0.84825781  0.49387123  0.83386405     0.28900
F927        F  0.80879984  0.51284179  0.84092224    -0.19100
H928        H  0.86931280  0.50073730  0.90444820     0.18600
H929        H  0.92320613  0.96356269  0.75270156     0.18600
F930        F  0.48034931  0.45012295  0.81462541    -0.19100
C931        C  0.86360903  0.50694111  0.66690865    -0.20500
C932        C  0.85455918  0.48058974  0.69870703    -0.08600
C933        C  0.87726304  0.44966642  0.68662570     0.30300
C934        C  0.90704847  0.44656175  0.64820817    -0.20500
C935        C  0.91663772  0.47353764  0.61977379    -0.08600
C936        C  0.89346231  0.50362415  0.62886101     0.30300
F937        F  0.90164363  0.53084533  0.60260280    -0.19100
H938        H  0.84882746  0.53152800  0.67083281     0.18600
H939        H  0.92512904  0.42305845  0.64239568     0.18600
F940        F  0.87951806  0.42343738  0.71559063    -0.19100
C941        C  0.79176510  0.37031956  0.70739948    -0.20500
C942        C  0.80307441  0.35425284  0.74871868    -0.08600
C943        C  0.81772123  0.37353755  0.78609575     0.30300
C944        C  0.81491981  0.40816124  0.78360953    -0.20500
C945        C  0.79331421  0.42493166  0.74572777    -0.08600
C946        C  0.78911857  0.40472754  0.70506965     0.30300
F947        F  0.78490623  0.41793886  0.66204897    -0.19100
H948        H  0.78506154  0.35627054  0.67631487     0.18600
H949        H  0.83342786  0.42089002  0.81021137     0.18600
F950        F  0.83681485  0.35910846  0.82433773    -0.19100
C951        C  0.85935158  0.04579333  0.75433248    -0.20500
C952        C  0.81787020  0.02619327  0.75010677    -0.08600
C953        C  0.77440897  0.04419931  0.75076747     0.30300
C954        C  0.77266423  0.07876516  0.75340238    -0.20500
C955        C  0.81394125  0.09735298  0.75552980    -0.08600
C956        C  0.85762765  0.08033329  0.75656269     0.30300
F957        F  0.89908497  0.09685060  0.75867876    -0.19100
H958        H  0.89414539  0.03411965  0.75405546     0.18600
H959        H  0.73829527  0.09108604  0.75243627     0.18600
F960        F  0.73281991  0.02987194  0.74508514    -0.19100
C961        C  0.96540780  0.20641692  0.88513875    -0.20500
C962        C  0.92660699  0.22814568  0.88491867    -0.08600
C963        C  0.92149452  0.25004450  0.92184378     0.30300
C964        C  0.95439083  0.24986306  0.95774062    -0.20500
C965        C  0.99407497  0.22749299  0.96043370    -0.08600
C966        C  0.99825626  0.20599550  0.92133546     0.30300
F967        F  0.03114686  0.18224811  0.91720445    -0.19100
H968        H  0.97031158  0.18895344  0.85712319     0.18600
H969        H  0.94927294  0.26972582  0.98140243     0.18600
F970        F  0.88553506  0.27279292  0.92294916    -0.19100
C971        C  0.96898155  0.25624910  0.56247655    -0.20500
C972        C  0.99678010  0.22802773  0.54850331    -0.08600
C973        C  0.98949134  0.19919381  0.57709606     0.30300
C974        C  0.95668079  0.19907230  0.61326374    -0.20500
C975        C  0.92984145  0.22711544  0.62415573    -0.08600
C976        C  0.93645968  0.25583563  0.59846685     0.30300
F977        F  0.91247094  0.28427819  0.60892674    -0.19100
H978        H  0.97245752  0.28026433  0.54680815     0.18600
H979        H  0.95333206  0.17683220  0.63395341     0.18600
F980        F  0.01889017  0.17264140  0.57823346    -0.19100
C981        C  0.56339438  0.32218821  0.53624251    -0.20500
C982        C  0.55605270  0.33907089  0.99454442    -0.08600
C983        C  0.04983601  0.32031604  0.95435637     0.30300
C984        C  0.04591456  0.28585524  0.95703394    -0.20500
C985        C  0.54700394  0.26844700  0.99999691    -0.08600
C986        C  0.55981767  0.28776167  0.53916399     0.30300
F987        F  0.56262094  0.27489513  0.58206697    -0.19100
H988        H  0.56990019  0.33586118  0.56769448     0.18600
H989        H  0.04091374  0.27287163  0.92481303     0.18600
F990        F  0.04562968  0.33517231  0.91245151    -0.19100
C991        C  0.66365890  0.24761404  0.90971766    -0.20500
C992        C  0.67184686  0.22185458  0.87835084    -0.08600
C993        C  0.64919070  0.19178487  0.88575120     0.30300
C994        C  0.62032629  0.18738145  0.92406517    -0.20500
C995        C  0.60935144  0.21320793  0.95613862    -0.08600
C996        C  0.63406840  0.24346032  0.94810233     0.30300
F997        F  0.63781182  0.26692064  0.98122183    -0.19100
H998        H  0.68265231  0.27059258  0.90623588     0.18600
H999        H  0.60720993  0.16259265  0.92764821     0.18600
F1000       F  0.65711146  0.16544596  0.85753497    -0.19100
C1001       C  0.60055255  0.21547078  0.59096082    -0.20500
C1002       C  0.61573669  0.21338308  0.54435341    -0.08600
C1003       C  0.66664938  0.21290342  0.53916066     0.30300
C1004       C  0.69715288  0.21776112  0.57644950    -0.20500
C1005       C  0.67988976  0.22038365  0.62120286    -0.08600
C1006       C  0.63135703  0.21892571  0.62831923     0.30300
F1007       F  0.61326895  0.22189149  0.67154961    -0.19100
H1008       H  0.56481521  0.21650825  0.60086763     0.18600
H1009       H  0.73506668  0.21726852  0.57052923     0.18600
F1010       F  0.68893516  0.20417370  0.49948299    -0.19100
C1011       C  0.60978702  0.14561412  0.51220794    -0.20500
C1012       C  0.57033736  0.16742404  0.00464373    -0.08600
C1013       C  0.52615679  0.15113455  0.99668272     0.30300
C1014       C  0.52322815  0.11659450  0.99489730    -0.20500
C1015       C  0.56309413  0.09617999  0.00131770    -0.08600
C1016       C  0.60649988  0.11117587  0.51052388     0.30300
F1017       F  0.64645045  0.09270068  0.51776603    -0.19100
H1018       H  0.64479992  0.15477712  0.51768597     0.18600
H1019       H  0.48889264  0.10577590  0.98888011     0.18600
F1020       F  0.48404121  0.16734187  0.99412266    -0.19100
C1021       C  0.57979467  0.70639629  0.00232502    -0.01700
C1022       C  0.53039048  0.73102121  0.50324818    -0.01700
Zn1023     Zn  0.80185219  0.75324851  0.19789012     1.49700
Zn1024     Zn  0.74860045  0.69653358  0.25214292     1.49400
Zn1025     Zn  0.86215208  0.69951673  0.25397833     1.49100
Zn1026     Zn  0.79923553  0.75463562  0.30732209     1.49500
O1027       O  0.80299072  0.72579728  0.25303511    -1.83400
O1028       O  0.74711833  0.74298800  0.15687787    -0.74000
O1029       O  0.77025528  0.64848196  0.25326832    -0.73800
O1030       O  0.90165193  0.70728786  0.19658269    -0.73300
O1031       O  0.70845766  0.70395728  0.19494960    -0.74000
O1032       O  0.85891050  0.74543421  0.15937489    -0.73600
O1033       O  0.84864223  0.65083902  0.25586741    -0.74200
O1034       O  0.85440275  0.74541962  0.34914170    -0.73600
O1035       O  0.70770475  0.70429025  0.30798821    -0.74300
O1036       O  0.90035634  0.70972134  0.31108342    -0.73700
O1037       O  0.73986423  0.74662213  0.34466826    -0.74200
O1038       O  0.80207287  0.80303858  0.28992372    -0.74100
O1039       O  0.80070142  0.80141368  0.21343169    -0.73900
C1040       C  0.71319662  0.72280543  0.15999743     0.77900
C1041       C  0.81080905  0.63414300  0.25503977     0.78400
C1042       C  0.89516707  0.72654999  0.16216866     0.77300
C1043       C  0.89203863  0.72778535  0.34629326     0.77700
C1044       C  0.70795811  0.72475850  0.34139669     0.78900
C1045       C  0.80213529  0.81766427  0.25096354     0.77900
C1046       C  0.82534487  0.48712467  0.24593489    -0.01700
C1047       C  0.77640357  0.96299812  0.24729502    -0.01700
Zn1048     Zn  0.54955209  0.94086174  0.44143538     1.49700
Zn1049     Zn  0.49575716  0.49910932  0.49554745     1.49400
Zn1050     Zn  0.54632731  0.93927278  0.05125705     1.49100
Zn1051     Zn  0.60944142  0.99246650  0.49938203     1.49500
O1052       O  0.55004580  0.96799665  0.49701031    -1.83400
O1053       O  0.49143338  0.95078154  0.40326338    -0.74000
O1054       O  0.95415584  0.99222878  0.05113829    -0.73800
O1055       O  0.55014775  0.89115201  0.03272963    -0.73300
O1056       O  0.95490553  0.99274781  0.43848153    -0.74000
O1057       O  0.55294389  0.89175922  0.45624157    -0.73600
O1058       O  0.48569015  0.94837276  0.08688361    -0.74200
O1059       O  0.64616363  0.98231668  0.05680409    -0.73600
O1060       O  0.51795969  0.54665571  0.49696817    -0.74300
O1061       O  0.60132385  0.94688905  0.09470333    -0.73700
O1062       O  0.59625906  0.54150991  0.50011394    -0.74200
O1063       O  0.65169735  0.98273307  0.44484427    -0.74100
O1064       O  0.60549204  0.95121032  0.40157092    -0.73900
C1065       C  0.95797358  0.97229759  0.40510345     0.77900
C1066       C  0.95377752  0.97101829  0.08374400     0.78400
C1067       C  0.55313456  0.87591597  0.49432260     0.77300
C1068       C  0.63847677  0.96429582  0.09193455     0.77700
C1069       C  0.55886813  0.55954068  0.49925533     0.78900
C1070       C  0.64360245  0.96703263  0.40772917     0.77900
C1071       C  0.66248119  0.97886995  0.32684440    -0.20500
C1072       C  0.67786235  0.96822601  0.36976446    -0.08600
C1073       C  0.72494171  0.95849915  0.37524409     0.30300
C1074       C  0.75562289  0.95799930  0.33730787    -0.20500
C1075       C  0.74203292  0.96813943  0.29185935    -0.08600
C1076       C  0.69293500  0.97955477  0.28914989     0.30300
F1077       F  0.67137877  0.99158222  0.25057596    -0.19100
H1078       H  0.62598115  0.98705803  0.32230906     0.18600
H1079       H  0.79026574  0.95006802  0.34629179     0.18600
F1080       F  0.74114758  0.94820898  0.41712208    -0.19100
C1081       C  0.70960694  0.98745883  0.13092100    -0.20500
C1082       C  0.67342804  0.96409777  0.13021706    -0.08600
C1083       C  0.67066385  0.94155236  0.16674230     0.30300
C1084       C  0.70367761  0.94237493  0.20245705    -0.20500
C1085       C  0.74125797  0.96588684  0.20435166    -0.08600
C1086       C  0.74234482  0.98882009  0.16716011     0.30300
F1087       F  0.77137031  0.51466077  0.16590393    -0.19100
H1088       H  0.71191560  0.50579457  0.10366342     0.18600
H1089       H  0.69959418  0.92442788  0.22998002     0.18600
F1090       F  0.63609579  0.91857614  0.16839177    -0.19100
C1091       C  0.87932279  0.99020517  0.37151500    -0.20500
C1092       C  0.92339511  0.97426590  0.36646310    -0.08600
C1093       C  0.93635714  0.96307870  0.32258067     0.30300
C1094       C  0.90609719  0.96767313  0.28504689    -0.20500
C1095       C  0.85898814  0.98034066  0.28938757    -0.08600
C1096       C  0.84821179  0.99386806  0.33390467     0.28900
F1097       F  0.80875237  0.01283783  0.34095949    -0.19100
H1098       H  0.86926094  0.00073437  0.40449084     0.18600
H1099       H  0.92324680  0.46356959  0.25265569     0.18600
F1100       F  0.48030977  0.95012879  0.31467303    -0.19100
C1101       C  0.86357699  0.00693789  0.16694500    -0.20500
C1102       C  0.85452742  0.98058794  0.19874552    -0.08600
C1103       C  0.87723441  0.94966472  0.18666788     0.30300
C1104       C  0.90702016  0.94655859  0.14825039    -0.20500
C1105       C  0.91661063  0.97353373  0.11981485    -0.08600
C1106       C  0.89343570  0.00362073  0.12890117     0.30300
F1107       F  0.90162319  0.03084246  0.10264612    -0.19100
H1108       H  0.84879424  0.03152469  0.17086708     0.18600
H1109       H  0.92510063  0.92305510  0.14243950     0.18600
F1110       F  0.87948995  0.92343705  0.21563543    -0.19100
C1111       C  0.79174149  0.87032959  0.20740840    -0.20500
C1112       C  0.80304654  0.85425651  0.24872366    -0.08600
C1113       C  0.81768093  0.87353551  0.28611117     0.30300
C1114       C  0.81487763  0.90815967  0.28363608    -0.20500
C1115       C  0.79327703  0.92493523  0.24575585    -0.08600
C1116       C  0.78908836  0.90473772  0.20509063     0.30300
F1117       F  0.78487724  0.91795618  0.16207410    -0.19100
H1118       H  0.78504553  0.85628553  0.17631785     0.18600
H1119       H  0.83338205  0.92088378  0.31024197     0.18600
F1120       F  0.83676418  0.85910115  0.32435435    -0.19100
C1121       C  0.85937230  0.54580084  0.25429475    -0.20500
C1122       C  0.81789651  0.52619531  0.25006886    -0.08600
C1123       C  0.77443066  0.54419625  0.25072681     0.30300
C1124       C  0.77267655  0.57876214  0.25335992    -0.20500
C1125       C  0.81394830  0.59735530  0.25548850    -0.08600
C1126       C  0.85763901  0.58034095  0.25652192     0.30300
F1127       F  0.89909188  0.59686377  0.25863473    -0.19100
H1128       H  0.89416899  0.53413160  0.25401898     0.18600
H1129       H  0.73830459  0.59107874  0.25239214     0.18600
F1130       F  0.73284565  0.52986384  0.24504249    -0.19100
C1131       C  0.96540380  0.70642783  0.38510276    -0.20500
C1132       C  0.92660077  0.72815462  0.38488533    -0.08600
C1133       C  0.92148835  0.75005282  0.42181133     0.30300
C1134       C  0.95438315  0.74986922  0.45770988    -0.20500
C1135       C  0.99406766  0.72749928  0.46040145    -0.08600
C1136       C  0.99825220  0.70600561  0.42129954     0.30300
F1137       F  0.03114523  0.68226005  0.41716583    -0.19100
H1138       H  0.97030885  0.68896593  0.35708551     0.18600
H1139       H  0.94926331  0.76972958  0.48137568     0.18600
F1140       F  0.88553012  0.77280223  0.42291606    -0.19100
C1141       C  0.96897029  0.75625219  0.06244693    -0.20500
C1142       C  0.99676476  0.72802890  0.04847149    -0.08600
C1143       C  0.98946644  0.69919372  0.07705885     0.30300
C1144       C  0.95665581  0.69907423  0.11322685    -0.20500
C1145       C  0.92982499  0.72712038  0.12412407    -0.08600
C1146       C  0.93645025  0.75584108  0.09843892     0.30300
F1147       F  0.91247099  0.78428633  0.10890485    -0.19100
H1148       H  0.97244846  0.78026748  0.04677903     0.18600
H1149       H  0.95330036  0.67683292  0.13391290     0.18600
F1150       F  0.01885524  0.67263614  0.07819122    -0.19100
C1151       C  0.56338620  0.82218364  0.03623930    -0.20500
C1152       C  0.55604140  0.83907325  0.49454880    -0.08600
C1153       C  0.04982707  0.82032511  0.45435414     0.30300
C1154       C  0.04590420  0.78586417  0.45702040    -0.20500
C1155       C  0.54699595  0.76844893  0.49997749    -0.08600
C1156       C  0.55981098  0.78775671  0.03914923     0.30300
F1157       F  0.56261276  0.77488376  0.08204868    -0.19100
H1158       H  0.56989220  0.83585154  0.06769562     0.18600
H1159       H  0.04090243  0.77288600  0.42479542     0.18600
F1160       F  0.04562471  0.83518801  0.41245347    -0.19100
C1161       C  0.66363640  0.74761174  0.40967116    -0.20500
C1162       C  0.67183351  0.72184699  0.37831500    -0.08600
C1163       C  0.64918961  0.69177460  0.38572732     0.30300
C1164       C  0.62032320  0.68737511  0.42404076    -0.20500
C1165       C  0.60934078  0.71320656  0.45610528    -0.08600
C1166       C  0.63404911  0.74346073  0.44805828     0.30300
F1167       F  0.63779397  0.76692498  0.48117208    -0.19100
H1168       H  0.68262269  0.77059247  0.40618072     0.18600
H1169       H  0.60720861  0.66258622  0.42762928     0.18600
F1170       F  0.65712528  0.66543034  0.35752431    -0.19100
C1171       C  0.60054253  0.71546178  0.09092816    -0.20500
C1172       C  0.61572624  0.71339075  0.04431978    -0.08600
C1173       C  0.66663847  0.71292561  0.03912500     0.30300
C1174       C  0.69714017  0.71778696  0.07641435    -0.20500
C1175       C  0.67987723  0.72039548  0.12116950    -0.08600
C1176       C  0.63134584  0.71891979  0.12828679     0.30300
F1177       F  0.61325740  0.72186880  0.17151901    -0.19100
H1178       H  0.56480440  0.71648180  0.10083472     0.18600
H1179       H  0.73505386  0.71730492  0.07049294     0.18600
F1180       F  0.68892725  0.70419967  0.99944747    -0.19100
C1181       C  0.60978745  0.64562182  0.01219485    -0.20500
C1182       C  0.57033379  0.66742662  0.50461754    -0.08600
C1183       C  0.52616013  0.65113356  0.49663854     0.30300
C1184       C  0.52323928  0.61659304  0.49485080    -0.20500
C1185       C  0.56310703  0.59618215  0.50128605    -0.08600
C1186       C  0.60650922  0.61118319  0.01050956     0.30300
F1187       F  0.64646160  0.59271246  0.01776374    -0.19100
H1188       H  0.64479713  0.65478942  0.01768166     0.18600
H1189       H  0.48890828  0.60577108  0.48882040     0.18600
F1190       F  0.48404279  0.66733798  0.49406917    -0.19100
C1191       C  0.57979520  0.70639602  0.50232512    -0.01700
C1192       C  0.53038952  0.73102099  0.00324784    -0.01700
Zn1193     Zn  0.80185200  0.75324716  0.69789046     1.49700
Zn1194     Zn  0.74859943  0.69653203  0.75214288     1.49400
Zn1195     Zn  0.86215108  0.69951478  0.75397755     1.49100
Zn1196     Zn  0.79923444  0.75463367  0.80732192     1.49500
O1197       O  0.80298996  0.72579554  0.75303492    -1.83400
O1198       O  0.74711829  0.74298647  0.65687837    -0.74000
O1199       O  0.77025382  0.64848036  0.75326900    -0.73800
O1200       O  0.90165122  0.70728616  0.69658184    -0.73300
O1201       O  0.70845727  0.70395572  0.69494977    -0.74000
O1202       O  0.85891060  0.74543348  0.65937510    -0.73600
O1203       O  0.84864084  0.65083727  0.75586643    -0.74200
O1204       O  0.85440160  0.74541743  0.84914125    -0.73600
O1205       O  0.70770270  0.70428905  0.80798721    -0.74300
O1206       O  0.90035502  0.70971887  0.81108317    -0.73700
O1207       O  0.73986287  0.74662042  0.84466766    -0.74200
O1208       O  0.80207104  0.80303682  0.78992417    -0.74100
O1209       O  0.80069962  0.80141225  0.71343221    -0.73900
C1210       C  0.71319643  0.72280400  0.65999784     0.77900
C1211       C  0.81080758  0.63414134  0.75503975     0.78400
C1212       C  0.89516688  0.72654893  0.66216837     0.77300
C1213       C  0.89203732  0.72778294  0.84629298     0.77700
C1214       C  0.70795607  0.72475734  0.84139560     0.78900
C1215       C  0.80213288  0.81766272  0.75096416     0.77900
C1216       C  0.82534378  0.48712309  0.74593497    -0.01700
C1217       C  0.77640206  0.96299700  0.74729479    -0.01700
Zn1218     Zn  0.54955302  0.94086174  0.94143582     1.49700
Zn1219     Zn  0.49575872  0.49910936  0.99554704     1.49400
Zn1220     Zn  0.54632617  0.93927294  0.55125678     1.49100
Zn1221     Zn  0.60944276  0.99246647  0.99938314     1.49500
O1222       O  0.55004699  0.96799663  0.99701075    -1.83400
O1223       O  0.49143455  0.95078140  0.90326316    -0.74000
O1224       O  0.95415444  0.99222825  0.55113854    -0.73800
O1225       O  0.55014773  0.89115221  0.53272980    -0.73300
O1226       O  0.95490706  0.99274804  0.93848067    -0.74000
O1227       O  0.55294450  0.89175922  0.95624142    -0.73600
O1228       O  0.48568878  0.94837201  0.58688332    -0.74200
O1229       O  0.64616221  0.98231733  0.55680342    -0.73600
O1230       O  0.51796185  0.54665567  0.99696821    -0.74300
O1231       O  0.60132240  0.94688979  0.59470279    -0.73700
O1232       O  0.59626115  0.54151009  0.00011611    -0.74200
O1233       O  0.65169825  0.98273367  0.94484497    -0.74100
O1234       O  0.60549294  0.95121052  0.90157212    -0.73900
C1235       C  0.95797491  0.97229757  0.90510282     0.77900
C1236       C  0.95377602  0.97101750  0.58374390     0.78400
C1237       C  0.55313457  0.87591587  0.99432233     0.77300
C1238       C  0.63847530  0.96429654  0.59193397     0.77700
C1239       C  0.55887016  0.55954078  0.99925662     0.78900
C1240       C  0.64360312  0.96703313  0.90773002     0.77900
C1241       C  0.66248034  0.97886940  0.82684472    -0.20500
C1242       C  0.67786241  0.96822648  0.86976497    -0.08600
C1243       C  0.72494199  0.95850020  0.87524438     0.30300
C1244       C  0.75562252  0.95799990  0.83730780    -0.20500
C1245       C  0.74203165  0.96813878  0.79185907    -0.08600
C1246       C  0.69293352  0.97955372  0.78914975     0.30300
F1247       F  0.67137674  0.99158074  0.75057583    -0.19100
H1248       H  0.62598005  0.98705712  0.82230958     0.18600
H1249       H  0.79026565  0.95006914  0.84629160     0.18600
F1250       F  0.74114879  0.94821116  0.91712257    -0.19100
C1251       C  0.70960605  0.98745883  0.63092057    -0.20500
C1252       C  0.67342661  0.96409821  0.63021648    -0.08600
C1253       C  0.67066199  0.94155268  0.66674156     0.30300
C1254       C  0.70367591  0.94237462  0.70245621    -0.20500
C1255       C  0.74125668  0.96588616  0.70435119    -0.08600
C1256       C  0.74234390  0.98881963  0.66715980     0.30300
F1257       F  0.77136973  0.51466001  0.66590373    -0.19100
H1258       H  0.71191481  0.50579468  0.60366336     0.18600
H1259       H  0.69959203  0.92442749  0.72997909     0.18600
F1260       F  0.63609322  0.91857700  0.66839099    -0.19100
C1261       C  0.87932429  0.99020575  0.87151429    -0.20500
C1262       C  0.92339583  0.97426535  0.86646270    -0.08600
C1263       C  0.93635599  0.96307571  0.82258087     0.30300
C1264       C  0.90609547  0.96766964  0.78504729    -0.20500
C1265       C  0.85898726  0.98033889  0.78938777    -0.08600
C1266       C  0.84821243  0.99386782  0.83390446     0.28900
F1267       F  0.80875341  0.01283802  0.84095933    -0.19100
H1268       H  0.86926351  0.00073633  0.90448967     0.18600
H1269       H  0.92324427  0.46356421  0.75265614     0.18600
F1270       F  0.48030723  0.95012340  0.81467330    -0.19100
C1271       C  0.86357613  0.00693673  0.66694551    -0.20500
C1272       C  0.85452613  0.98058653  0.69874548    -0.08600
C1273       C  0.87723206  0.94966318  0.68666679     0.30300
C1274       C  0.90701778  0.94655720  0.64824922    -0.20500
C1275       C  0.91660903  0.97353266  0.61981460    -0.08600
C1276       C  0.89343473  0.00361973  0.62890167     0.30300
F1277       F  0.90162285  0.03084176  0.60264749    -0.19100
H1278       H  0.84879381  0.03152355  0.67086791     0.18600
H1279       H  0.92509757  0.92305355  0.64243755     0.18600
F1280       F  0.87948643  0.92343491  0.71563330    -0.19100
C1281       C  0.79173856  0.87032806  0.70740903    -0.20500
C1282       C  0.80304312  0.85425502  0.74872448    -0.08600
C1283       C  0.81767662  0.87353413  0.78611228     0.30300
C1284       C  0.81487430  0.90815827  0.78363662    -0.20500
C1285       C  0.79327462  0.92493391  0.74575602    -0.08600
C1286       C  0.78908551  0.90473619  0.70509099     0.30300
F1287       F  0.78487442  0.91795443  0.66207431    -0.19100
H1288       H  0.78504292  0.85628394  0.67631843     0.18600
H1289       H  0.83337863  0.92088226  0.81024280     0.18600
F1290       F  0.83675786  0.85909985  0.82435647    -0.19100
C1291       C  0.85937109  0.54579930  0.75429535    -0.20500
C1292       C  0.81789539  0.52619372  0.75006902    -0.08600
C1293       C  0.77442945  0.54419461  0.75072682     0.30300
C1294       C  0.77267523  0.57876047  0.75335979    -0.20500
C1295       C  0.81394687  0.59735367  0.75548869    -0.08600
C1296       C  0.85763766  0.58033938  0.75652268     0.30300
F1297       F  0.89909042  0.59686226  0.75863626    -0.19100
H1298       H  0.89416791  0.53413006  0.75401989     0.18600
H1299       H  0.73830322  0.59107702  0.75239156     0.18600
F1300       F  0.73284446  0.52986223  0.74504201    -0.19100
C1301       C  0.96540220  0.70642535  0.88510327    -0.20500
C1302       C  0.92659931  0.72815227  0.88488521    -0.08600
C1303       C  0.92148682  0.75005077  0.92181083     0.30300
C1304       C  0.95438202  0.74986797  0.95770902    -0.20500
C1305       C  0.99406669  0.72749824  0.96040112    -0.08600
C1306       C  0.99825069  0.70600363  0.92130007     0.30300
F1307       F  0.03114308  0.68225755  0.91716733    -0.19100
H1308       H  0.97030694  0.68896293  0.85708658     0.18600
H1309       H  0.94926221  0.76972874  0.98137409     0.18600
F1310       F  0.88552806  0.77279975  0.92291553    -0.19100
C1311       C  0.96897163  0.75625230  0.56244810    -0.20500
C1312       C  0.99676544  0.72802891  0.54847167    -0.08600
C1313       C  0.98946592  0.69919322  0.57705764     0.30300
C1314       C  0.95665499  0.69907339  0.61322540    -0.20500
C1315       C  0.92982505  0.72711971  0.62412388    -0.08600
C1316       C  0.93645141  0.75584089  0.59844003     0.30300
F1317       F  0.91247302  0.78428628  0.60890710    -0.19100
H1318       H  0.97245016  0.78026775  0.54678089     0.18600
H1319       H  0.95329864  0.67683161  0.63391034     0.18600
F1320       F  0.01885384  0.67263518  0.57818901    -0.19100
C1321       C  0.56338670  0.82218380  0.53623998    -0.20500
C1322       C  0.55604075  0.83907314  0.99454825    -0.08600
C1323       C  0.04982557  0.82032511  0.95435361     0.30300
C1324       C  0.04590205  0.78586416  0.95701987    -0.20500
C1325       C  0.54699442  0.76844886  0.99997692    -0.08600
C1326       C  0.55981224  0.78775679  0.53914985     0.30300
F1327       F  0.56261449  0.77488365  0.58204919    -0.19100
H1328       H  0.56989212  0.83585175  0.56769641     0.18600
H1329       H  0.04089959  0.77288607  0.92479498     0.18600
F1330       F  0.04562288  0.83518815  0.91245303    -0.19100
C1331       C  0.66363387  0.74761151  0.90966904    -0.20500
C1332       C  0.67183079  0.72184649  0.87831331    -0.08600
C1333       C  0.64918645  0.69177432  0.88572586     0.30300
C1334       C  0.62032091  0.68737500  0.92403994    -0.20500
C1335       C  0.60933926  0.71320655  0.95610454    -0.08600
C1336       C  0.63404702  0.74346081  0.94805653     0.30300
F1337       F  0.63779212  0.76692541  0.98116980    -0.19100
H1338       H  0.68262025  0.77059219  0.90617810     0.18600
H1339       H  0.60720668  0.66258605  0.92762902     0.18600
F1340       F  0.65712133  0.66543002  0.85752275    -0.19100
C1341       C  0.60054232  0.71546076  0.59092853    -0.20500
C1342       C  0.61572646  0.71338976  0.54432026    -0.08600
C1343       C  0.66663871  0.71292409  0.53912579     0.30300
C1344       C  0.69714025  0.71778540  0.57641512    -0.20500
C1345       C  0.67987706  0.72039424  0.62117005    -0.08600
C1346       C  0.63134560  0.71891881  0.62828722     0.30300
F1347       F  0.61325700  0.72186824  0.67151931    -0.19100
H1348       H  0.56480423  0.71648052  0.60083483     0.18600
H1349       H  0.73505395  0.71730300  0.57049390     0.18600
F1350       F  0.68892766  0.70419750  0.49944863    -0.19100
C1351       C  0.60978637  0.64562113  0.51219542    -0.20500
C1352       C  0.57033408  0.66742687  0.00461845    -0.08600
C1353       C  0.52616042  0.65113336  0.99664143     0.30300
C1354       C  0.52324016  0.61659283  0.99485435    -0.20500
C1355       C  0.56310867  0.59618232  0.00128756    -0.08600
C1356       C  0.60650736  0.61118257  0.51051035     0.30300
F1357       F  0.64645876  0.59271142  0.51776762    -0.19100
H1358       H  0.64479596  0.65478819  0.51768401     0.18600
H1359       H  0.48890911  0.60577057  0.98882559     0.18600
F1360       F  0.48404275  0.66733746  0.99407239    -0.19100
loop_ 
_geom_bond_atom_site_label_1 
_geom_bond_atom_site_label_2 
_geom_bond_distance 
_geom_bond_site_symmetry_2 
_ccdc_geom_bond_type 
C1          C152   1.611       .  S
C1          C315   1.605   1_554  S
C1          C332   1.601       .  S
C1          C172   1.700       .  S
C2          C135   1.592       .  S
C2          C795   1.617   1_455  S
C2          C972   1.625   1_455  S
C2          C171   1.700       .  S
Zn3           O7   1.943       .  S
Zn3           O8   1.997       .  S
Zn3          O12   1.983       .  S
Zn3          O19   1.996       .  S
Zn4           O7   1.952       .  S
Zn4           O9   2.024       .  S
Zn4          O11   2.025       .  S
Zn4          O15   2.012       .  S
Zn5           O7   1.964       .  S
Zn5          O10   2.031       .  S
Zn5          O13   2.008       .  S
Zn5          O16   2.020       .  S
Zn6           O7   1.961       .  S
Zn6          O14   2.001       .  S
Zn6          O17   2.027       .  S
Zn6          O18   2.020       .  S
O8           C20   1.270       .  A
O9           C21   1.275       .  A
O10          C22   1.275       .  A
O11          C20   1.274       .  A
O12          C22   1.269       .  A
O13          C21   1.272       .  A
O14          C23   1.272       .  A
O15          C24   1.274       .  A
O16          C23   1.275       .  A
O17          C24   1.275       .  A
O18          C25   1.273       .  A
O19          C25   1.272       .  A
C20         C155   1.470       .  S
C21         C105   1.486       .  S
C22         C125   1.476       .  S
C23         C112   1.483       .  S
C24         C142   1.485       .  S
C25          C92   1.479       .  S
C26         C102   1.592   1_565  S
C26         C415   1.596       .  S
C26         C422   1.619       .  S
C26         C367   1.703       .  S
C27          C55   1.628       .  S
C27          C65   1.593       .  S
C27          C95   1.602       .  S
C27         C366   1.703       .  S
Zn28         O32   1.950       .  S
Zn28         O33   2.012   1_455  S
Zn28         O37   2.028       .  S
Zn28         O44   2.007       .  S
Zn29        O372   1.967   1_655  S
Zn29         O40   2.029   1_665  S
Zn29       O1224   2.015       .  S
Zn29       O1056   2.034       .  S
Zn30        O202   1.956   1_554  S
Zn30         O35   2.017       .  S
Zn30         O38   2.029   1_455  S
Zn30         O41   2.025       .  S
Zn31         O32   1.961       .  S
Zn31         O43   2.017       .  S
Zn31        O209   1.997       .  S
Zn31        O382   2.009       .  S
O32        Zn369   1.967   1_455  S
O32        Zn200   1.956       .  S
O33         C725   1.274       .  A
O34       Zn1219   2.015   1_554  S
O34          C46   1.274       .  A
O35         C217   1.275   1_554  A
O36       Zn1049   2.034       .  S
O36          C45   1.275       .  A
O37          C47   1.274       .  A
O38         C726   1.276       .  A
O39        Zn201   1.997   1_554  S
O39          C48   1.271       .  A
O40          C49   1.276       .  A
O41          C48   1.274       .  A
O42        Zn371   2.008   1_545  S
O42          C49   1.273       .  A
O43          C50   1.272       .  A
O44          C50   1.272       .  A
C45         O713   1.274       .  A
C45          C72   1.485       .  S
C46         O718   1.276       .  A
C46          C85   1.485       .  S
C47         O205   1.275       .  A
C47         C132   1.488       .  S
C48          C62   1.483       .  S
C49         C165   1.487       .  S
C50          C52   1.467       .  S
C51          C52   1.382       .  A
C51          C56   1.392       .  A
C51          H58   1.085       .  S
C52          C53   1.389       .  A
C53          C54   1.401       .  A
C53          F60   1.358       .  S
C54          C55   1.428       .  A
C54          H59   1.056       .  S
C55          C56   1.456       .  A
C56          F57   1.357       .  S
C61          C62   1.401       .  A
C61          C66   1.399       .  A
C61         H408   1.083       .  S
C62          C63   1.398       .  A
C63          C64   1.392       .  A
C63          F70   1.358       .  S
C64          C65   1.436       .  A
C64          H69   1.084       .  S
C65          C66   1.420       .  A
C66         F407   1.337       .  S
F67         C406   1.337   1_545  S
H68         C401   1.083   1_545  S
C71          C72   1.400       .  A
C71          C76   1.405       .  A
C71          H78   1.083       .  S
C72          C73   1.398       .  A
C73          C74   1.392       .  A
C73         F760   1.359       .  S
C74          C75   1.423       .  A
C74         H419   1.067       .  S
C75         C366   1.596       .  S
C75          C76   1.433       .  A
C76          F77   1.358       .  S
H79         C414   1.067       .  S
F80         C753   1.359       .  S
C81          C82   1.432       .  A
C81          C86   1.394       .  A
C81          H88   1.077       .  S
C82         C366   1.619       .  S
C82          C83   1.438       .  A
C83          C84   1.401       .  A
C83          F90   1.350       .  S
C84          C85   1.395       .  A
C84          H89   1.084       .  S
C85          C86   1.396       .  A
C86          F87   1.358       .  S
C91          C92   1.395       .  A
C91          C96   1.391       .  A
C91          H98   1.083       .  S
C92          C93   1.401       .  A
C93          C94   1.400       .  A
C93         F100   1.358       .  S
C94          C95   1.420       .  A
C94          H99   1.068       .  S
C95          C96   1.440       .  A
C96          F97   1.359       .  S
C101        C102   1.429       .  A
C101        C106   1.396       .  A
C101        H108   1.083       .  S
C102        C103   1.416       .  A
C103        C104   1.397       .  A
C103        F110   1.327       .  S
C104        C105   1.397       .  A
C104        H109   1.083       .  S
C105        C106   1.402       .  A
C106        F107   1.357       .  S
C111        C112   1.392       .  A
C111        C116   1.399       .  A
C111        H118   1.084       .  S
C112        C113   1.395       .  A
C113        C114   1.393       .  A
C113        F120   1.358       .  S
C114        C115   1.430       .  A
C114        H119   1.064       .  S
C115        C682   1.617       .  S
C115        C116   1.432       .  A
C116        F117   1.330       .  S
C121        C122   1.432       .  A
C121        C126   1.391       .  A
C121        H128   1.076       .  S
C122        C852   1.625       .  S
C122        C123   1.445       .  A
C123        C124   1.400       .  A
C123        F130   1.345       .  S
C124        C125   1.389       .  A
C124        H129   1.084       .  S
C125        C126   1.392       .  A
C126        F127   1.359       .  S
C131        C136   1.397       .  A
C131        C302   1.400   1_554  A
C131        H138   1.083       .  S
C132        C301   1.400       .  A
C132        C813   1.403       .  A
C133        C134   1.399       .  A
C133        C812   1.403       .  A
C133        F140   1.358       .  S
C134        C815   1.429       .  A
C134        H139   1.082       .  S
C135        C814   1.429       .  A
C135        C306   1.427       .  A
C136        C305   1.427   1_554  A
C136        F137   1.348       .  S
C141        C142   1.399       .  A
C141        C146   1.404       .  A
C141        H148   1.083       .  S
C142        C143   1.397       .  A
C143        C144   1.391       .  A
C143        F150   1.358       .  S
C144        C145   1.429       .  A
C144        H149   1.077       .  S
C145        C171   1.605       .  S
C145        C146   1.435       .  A
C146        F147   1.355       .  S
C151        C152   1.420       .  A
C151        C156   1.396       .  A
C151        H158   1.050       .  S
C152        C153   1.445       .  A
C153        C154   1.397       .  A
C153        F160   1.356   1_554  S
C154        C155   1.390       .  A
C154        H159   1.084       .  S
C155        C156   1.388       .  A
C156        F157   1.358       .  S
C161        C166   1.396       .  A
C161        C332   1.425       .  A
C161        H168   1.073       .  S
C162        C171   1.601       .  S
C162        C163   1.438       .  A
C162        C331   1.425       .  A
C163        C164   1.399       .  A
C163        F170   1.350   1_455  S
C164        C165   1.396       .  A
C164        H169   1.083   1_455  S
C165        C336   1.401       .  A
C166        C335   1.401       .  A
C166        F167   1.358       .  S
C171        C322   1.611       .  S
C172        C965   1.617   1_454  S
C172        C802   1.625   1_455  S
C172        C305   1.592   1_554  S
Zn173       O177   1.943       .  S
Zn173       O178   1.997       .  S
Zn173       O182   1.983       .  S
Zn173       O189   1.996       .  S
Zn174       O177   1.952       .  S
Zn174       O179   2.024       .  S
Zn174       O181   2.025       .  S
Zn174       O185   2.012       .  S
Zn175       O177   1.964       .  S
Zn175       O180   2.031       .  S
Zn175       O183   2.008       .  S
Zn175       O186   2.020       .  S
Zn176       O177   1.961       .  S
Zn176       O184   2.001       .  S
Zn176       O187   2.027       .  S
Zn176       O188   2.020       .  S
O178        C190   1.270       .  A
O179        C191   1.275       .  A
O180        C192   1.275       .  A
O181        C190   1.274       .  A
O182        C192   1.269       .  A
O183        C191   1.272       .  A
O184        C193   1.272       .  A
O185        C194   1.274       .  A
O186        C193   1.275       .  A
O187        C194   1.275       .  A
O188        C195   1.273       .  A
O189        C195   1.272       .  A
C190        C325   1.470       .  S
C191        C275   1.486       .  S
C192        C295   1.476       .  S
C193        C282   1.483       .  S
C194        C312   1.485       .  S
C195        C262   1.479       .  S
C196        C585   1.596       .  S
C196        C592   1.619       .  S
C196        C272   1.592   1_565  S
C196        C537   1.703       .  S
C197        C225   1.628       .  S
C197        C235   1.593       .  S
C197        C265   1.602       .  S
C197        C536   1.703       .  S
Zn198       O202   1.950       .  S
Zn198       O203   2.012   1_455  S
Zn198       O207   2.028       .  S
Zn198       O214   2.007       .  S
Zn199       O542   1.967   1_655  S
Zn199      O1054   2.015   1_556  S
Zn199      O1226   2.034       .  S
Zn199       O210   2.029   1_665  S
Zn200       O205   2.017       .  S
Zn200       O208   2.029   1_455  S
Zn200       O211   2.025       .  S
Zn201       O202   1.961       .  S
Zn201       O552   2.009   1_556  S
Zn201       O213   2.017       .  S
O202       Zn539   1.967   1_455  S
O203        C895   1.274       .  A
O204      Zn1049   2.015       .  S
O204        C216   1.274       .  A
O206      Zn1219   2.034       .  S
O206        C215   1.275       .  A
O207        C217   1.274       .  A
O208        C896   1.276       .  A
O209        C218   1.271       .  A
O210        C219   1.276       .  A
O211        C218   1.274       .  A
O212       Zn541   2.008   1_544  S
O212        C219   1.273   1_554  A
O213        C220   1.272       .  A
O214        C220   1.272       .  A
C215        O883   1.274       .  A
C215        C242   1.485       .  S
C216        O888   1.276       .  A
C216        C255   1.485       .  S
C217        C302   1.488       .  S
C218        C232   1.483       .  S
C219        C335   1.487   1_556  S
C220        C222   1.467       .  S
C221        C222   1.382       .  A
C221        C226   1.392       .  A
C221        H228   1.085       .  S
C222        C223   1.389       .  A
C223        C224   1.401       .  A
C223        F230   1.358       .  S
C224        C225   1.428       .  A
C224        H229   1.056       .  S
C225        C226   1.456       .  A
C226        F227   1.357       .  S
C231        C232   1.401       .  A
C231        C236   1.399       .  A
C231        H578   1.083       .  S
C232        C233   1.398       .  A
C233        C234   1.392       .  A
C233        F240   1.358       .  S
C234        C235   1.436       .  A
C234        H239   1.084       .  S
C235        C236   1.420       .  A
C236        F577   1.337       .  S
F237        C576   1.337   1_545  S
H238        C571   1.083   1_545  S
C241        C242   1.400       .  A
C241        C246   1.405       .  A
C241        H248   1.083       .  S
C242        C243   1.398       .  A
C243        C244   1.392       .  A
C243        F930   1.359       .  S
C244        C245   1.423       .  A
C244        H589   1.067       .  S
C245        C536   1.596       .  S
C245        C246   1.433       .  A
C246        F247   1.358       .  S
H249        C584   1.067       .  S
F250        C923   1.359       .  S
C251        C252   1.432       .  A
C251        C256   1.394       .  A
C251        H258   1.077       .  S
C252        C536   1.619       .  S
C252        C253   1.438       .  A
C253        C254   1.401       .  A
C253        F260   1.350       .  S
C254        C255   1.395       .  A
C254        H259   1.084       .  S
C255        C256   1.396       .  A
C256        F257   1.358       .  S
C261        C262   1.395       .  A
C261        C266   1.391       .  A
C261        H268   1.083       .  S
C262        C263   1.401       .  A
C263        C264   1.400       .  A
C263        F270   1.358       .  S
C264        C265   1.420       .  A
C264        H269   1.068       .  S
C265        C266   1.440       .  A
C266        F267   1.359       .  S
C271        C272   1.429       .  A
C271        C276   1.396       .  A
C271        H278   1.083       .  S
C272        C273   1.416       .  A
C273        C274   1.397       .  A
C273        F280   1.327       .  S
C274        C275   1.397       .  A
C274        H279   1.083       .  S
C275        C276   1.402       .  A
C276        F277   1.357       .  S
C281        C282   1.392       .  A
C281        C286   1.399       .  A
C281        H288   1.084       .  S
C282        C283   1.395       .  A
C283        C284   1.393       .  A
C283        F290   1.358       .  S
C284        C285   1.430       .  A
C284        H289   1.064       .  S
C285        C852   1.617   1_556  S
C285        C286   1.432       .  A
C286        F287   1.330       .  S
C291        C292   1.432       .  A
C291        C296   1.391       .  A
C291        H298   1.076       .  S
C292        C682   1.625       .  S
C292        C293   1.445       .  A
C293        C294   1.400       .  A
C293        F300   1.345       .  S
C294        C295   1.389       .  A
C294        H299   1.084       .  S
C295        C296   1.392       .  A
C296        F297   1.359       .  S
C301        C306   1.397       .  A
C301        H308   1.083       .  S
C302        C983   1.403       .  A
C303        C982   1.403       .  A
C303        C304   1.399       .  A
C303        F310   1.358       .  S
C304        C985   1.429       .  A
C304        H309   1.082       .  S
C305        C984   1.429       .  A
C306        F307   1.348       .  S
C311        C312   1.399       .  A
C311        C316   1.404       .  A
C311        H318   1.083       .  S
C312        C313   1.397       .  A
C313        C314   1.391       .  A
C313        F320   1.358       .  S
C314        C315   1.429       .  A
C314        H319   1.077       .  S
C315        C316   1.435       .  A
C316        F317   1.355       .  S
C321        C322   1.420       .  A
C321        C326   1.396       .  A
C321        H328   1.050       .  S
C322        C323   1.445       .  A
C323        C324   1.397       .  A
C323        F330   1.356       .  S
C324        C325   1.390       .  A
C324        H329   1.084       .  S
C325        C326   1.388       .  A
C326        F327   1.358       .  S
C331        C336   1.396       .  A
C331        H338   1.072       .  S
C332        C333   1.438   1_554  A
C333        C334   1.399       .  A
C333        F340   1.350   1_455  S
C334        C335   1.396   1_556  A
C334        H339   1.083   1_455  S
C336        F337   1.358       .  S
C341        C655   1.605   1_554  S
C341        C492   1.611       .  S
C341        C672   1.601       .  S
C341        C512   1.700       .  S
C342       C1135   1.617   1_455  S
C342       C1312   1.625   1_455  S
C342        C475   1.592       .  S
C342        C511   1.700       .  S
Zn343       O347   1.943       .  S
Zn343       O348   1.997       .  S
Zn343       O352   1.983       .  S
Zn343       O359   1.996       .  S
Zn344       O347   1.952       .  S
Zn344       O349   2.024       .  S
Zn344       O351   2.025       .  S
Zn344       O355   2.012       .  S
Zn345       O347   1.964       .  S
Zn345       O350   2.031       .  S
Zn345       O353   2.008       .  S
Zn345       O356   2.020       .  S
Zn346       O347   1.961       .  S
Zn346       O354   2.001       .  S
Zn346       O357   2.027       .  S
Zn346       O358   2.020       .  S
O348        C360   1.270       .  A
O349        C361   1.275       .  A
O350        C362   1.275       .  A
O351        C360   1.274       .  A
O352        C362   1.269       .  A
O353        C361   1.272       .  A
O354        C363   1.272       .  A
O355        C364   1.274       .  A
O356        C363   1.275       .  A
O357        C364   1.275       .  A
O358        C365   1.273       .  A
O359        C365   1.272       .  A
C360        C495   1.470       .  S
C361        C445   1.486       .  S
C362        C465   1.476       .  S
C363        C452   1.483       .  S
C364        C482   1.485       .  S
C365        C432   1.479       .  S
C366        C442   1.592       .  S
C367        C395   1.628       .  S
C367        C405   1.593       .  S
C367        C435   1.602       .  S
Zn368       O372   1.950       .  S
Zn368       O373   2.012   1_455  S
Zn368       O377   2.028       .  S
Zn368       O384   2.007       .  S
Zn369       O884   2.015       .  S
Zn369       O716   2.034       .  S
Zn369       O380   2.029   1_655  S
Zn370       O542   1.956   1_554  S
Zn370       O375   2.017       .  S
Zn370       O378   2.029   1_455  S
Zn370       O381   2.025       .  S
Zn371       O372   1.961       .  S
Zn371       O549   1.997       .  S
Zn371       O383   2.017       .  S
O372       Zn540   1.956       .  S
O373       C1065   1.274       .  A
O374       Zn879   2.015   1_554  S
O374        C386   1.274       .  A
O375        C557   1.275   1_554  A
O376       Zn709   2.034       .  S
O376        C385   1.275       .  A
O377        C387   1.274       .  A
O378       C1066   1.276       .  A
O379       Zn541   1.997   1_554  S
O379        C388   1.271       .  A
O380        C389   1.276       .  A
O381        C388   1.274       .  A
O382        C389   1.273       .  A
O383        C390   1.272       .  A
O384        C390   1.272       .  A
C385       O1053   1.274       .  A
C385        C412   1.485       .  S
C386       O1058   1.276       .  A
C386        C425   1.485       .  S
C387        O545   1.275       .  A
C387        C472   1.488       .  S
C388        C402   1.483       .  S
C389        C505   1.487       .  S
C390        C392   1.467       .  S
C391        C392   1.382       .  A
C391        C396   1.392       .  A
C391        H398   1.085       .  S
C392        C393   1.389       .  A
C393        C394   1.401       .  A
C393        F400   1.358       .  S
C394        C395   1.429       .  A
C394        H399   1.056       .  S
C395        C396   1.456       .  A
C396        F397   1.357       .  S
C401        C402   1.401       .  A
C401        C406   1.399       .  A
C402        C403   1.398       .  A
C403        C404   1.392       .  A
C403        F410   1.358       .  S
C404        C405   1.436       .  A
C404        H409   1.084       .  S
C405        C406   1.420       .  A
C411        C412   1.400       .  A
C411        C416   1.405       .  A
C411        H418   1.083   1_565  S
C412        C413   1.398       .  A
C413        C414   1.392       .  A
C413       F1100   1.359       .  S
C414        C415   1.423       .  A
C415        C416   1.433       .  A
C416        F417   1.358   1_565  S
F420       C1093   1.359       .  S
C421        C422   1.432   1_545  A
C421        C426   1.394       .  A
C421        H428   1.077       .  S
C422        C423   1.438       .  A
C423        C424   1.401       .  A
C423        F430   1.350       .  S
C424        C425   1.395       .  A
C424        H429   1.084       .  S
C425        C426   1.396   1_565  A
C426        F427   1.358       .  S
C431        C432   1.395       .  A
C431        C436   1.391       .  A
C431        H438   1.083       .  S
C432        C433   1.401       .  A
C433        C434   1.400       .  A
C433        F440   1.358       .  S
C434        C435   1.420       .  A
C434        H439   1.068       .  S
C435        C436   1.440       .  A
C436        F437   1.359       .  S
C441        C442   1.429       .  A
C441        C446   1.396       .  A
C441        H448   1.083       .  S
C442        C443   1.416       .  A
C443        C444   1.397       .  A
C443        F450   1.327       .  S
C444        C445   1.397       .  A
C444        H449   1.083       .  S
C445        C446   1.402       .  A
C446        F447   1.357       .  S
C451        C452   1.392       .  A
C451        C456   1.399       .  A
C451        H458   1.084       .  S
C452        C453   1.395       .  A
C453        C454   1.393       .  A
C453        F460   1.358       .  S
C454        C455   1.430       .  A
C454        H459   1.064       .  S
C455       C1022   1.617       .  S
C455        C456   1.432       .  A
C456        F457   1.330       .  S
C461        C462   1.432       .  A
C461        C466   1.391       .  A
C461        H468   1.076       .  S
C462       C1192   1.625       .  S
C462        C463   1.445       .  A
C463        C464   1.400       .  A
C463        F470   1.345       .  S
C464        C465   1.389       .  A
C464        H469   1.084       .  S
C465        C466   1.392       .  A
C466        F467   1.359       .  S
C471        C642   1.400   1_554  A
C471        C476   1.397       .  A
C471        H478   1.083       .  S
C472        C641   1.400       .  A
C472       C1153   1.403       .  A
C473       C1152   1.403       .  A
C473        C474   1.399       .  A
C473        F480   1.358       .  S
C474       C1155   1.429       .  A
C474        H479   1.082       .  S
C475       C1154   1.429       .  A
C475        C646   1.428       .  A
C476        C645   1.428   1_554  A
C476        F477   1.348       .  S
C481        C482   1.399       .  A
C481        C486   1.404       .  A
C481        H488   1.083       .  S
C482        C483   1.397       .  A
C483        C484   1.391       .  A
C483        F490   1.358       .  S
C484        C485   1.429       .  A
C484        H489   1.077       .  S
C485        C511   1.605       .  S
C485        C486   1.435       .  A
C486        F487   1.355       .  S
C491        C492   1.420       .  A
C491        C496   1.396       .  A
C491        H498   1.050       .  S
C492        C493   1.445       .  A
C493        C494   1.397       .  A
C493        F500   1.356   1_554  S
C494        C495   1.390       .  A
C494        H499   1.084       .  S
C495        C496   1.388       .  A
C496        F497   1.358       .  S
C501        C672   1.425       .  A
C501        C506   1.396       .  A
C501        H508   1.073       .  S
C502        C511   1.601       .  S
C502        C671   1.425       .  A
C502        C503   1.438       .  A
C503        C504   1.399       .  A
C503        F510   1.350   1_455  S
C504        C505   1.396       .  A
C504        H509   1.083   1_455  S
C505        C676   1.401       .  A
C506        C675   1.401       .  A
C506        F507   1.358       .  S
C511        C662   1.611       .  S
C512       C1305   1.617   1_454  S
C512       C1142   1.625   1_455  S
C512        C645   1.592   1_554  S
Zn513       O517   1.943       .  S
Zn513       O518   1.997       .  S
Zn513       O522   1.983       .  S
Zn513       O529   1.996       .  S
Zn514       O517   1.952       .  S
Zn514       O519   2.024       .  S
Zn514       O521   2.025       .  S
Zn514       O525   2.012       .  S
Zn515       O517   1.964       .  S
Zn515       O520   2.031       .  S
Zn515       O523   2.008       .  S
Zn515       O526   2.020       .  S
Zn516       O517   1.961       .  S
Zn516       O524   2.001       .  S
Zn516       O527   2.027       .  S
Zn516       O528   2.020       .  S
O518        C530   1.270       .  A
O519        C531   1.275       .  A
O520        C532   1.275       .  A
O521        C530   1.274       .  A
O522        C532   1.269       .  A
O523        C531   1.272       .  A
O524        C533   1.272       .  A
O525        C534   1.274       .  A
O526        C533   1.275       .  A
O527        C534   1.275       .  A
O528        C535   1.273       .  A
O529        C535   1.272       .  A
C530        C665   1.470       .  S
C531        C615   1.486       .  S
C532        C635   1.476       .  S
C533        C622   1.483       .  S
C534        C652   1.485       .  S
C535        C602   1.479       .  S
C536        C612   1.592       .  S
C537        C565   1.628       .  S
C537        C575   1.593       .  S
C537        C605   1.602       .  S
Zn538       O542   1.950       .  S
Zn538       O543   2.012   1_455  S
Zn538       O547   2.028       .  S
Zn538       O554   2.007       .  S
Zn539       O714   2.015   1_556  S
Zn539       O886   2.034       .  S
Zn539       O550   2.029   1_655  S
Zn540       O545   2.017       .  S
Zn540       O548   2.029   1_455  S
Zn540       O551   2.025       .  S
Zn541       O542   1.961       .  S
Zn541       O553   2.017       .  S
O543       C1235   1.274       .  A
O544       Zn709   2.015       .  S
O544        C556   1.274       .  A
O546       Zn879   2.034       .  S
O546        C555   1.275       .  A
O547        C557   1.274       .  A
O548       C1236   1.276       .  A
O549        C558   1.271       .  A
O550        C559   1.276       .  A
O551        C558   1.274       .  A
O552        C559   1.273   1_554  A
O553        C560   1.272       .  A
O554        C560   1.272       .  A
C555       O1223   1.274       .  A
C555        C582   1.485       .  S
C556       O1228   1.276       .  A
C556        C595   1.485       .  S
C557        C642   1.488       .  S
C558        C572   1.483       .  S
C559        C675   1.487   1_556  S
C560        C562   1.467       .  S
C561        C562   1.382       .  A
C561        C566   1.392       .  A
C561        H568   1.085       .  S
C562        C563   1.389       .  A
C563        C564   1.401       .  A
C563        F570   1.358       .  S
C564        C565   1.428       .  A
C564        H569   1.056       .  S
C565        C566   1.456       .  A
C566        F567   1.357       .  S
C571        C572   1.401       .  A
C571        C576   1.399       .  A
C572        C573   1.398       .  A
C573        C574   1.392       .  A
C573        F580   1.358       .  S
C574        C575   1.436       .  A
C574        H579   1.084       .  S
C575        C576   1.420       .  A
C581        C582   1.400       .  A
C581        C586   1.405       .  A
C581        H588   1.083   1_565  S
C582        C583   1.398       .  A
C583        C584   1.392       .  A
C583       F1270   1.359       .  S
C584        C585   1.423       .  A
C585        C586   1.433       .  A
C586        F587   1.358   1_565  S
F590       C1263   1.359       .  S
C591        C592   1.432   1_545  A
C591        C596   1.394       .  A
C591        H598   1.077       .  S
C592        C593   1.438       .  A
C593        C594   1.401       .  A
C593        F600   1.350       .  S
C594        C595   1.395       .  A
C594        H599   1.084       .  S
C595        C596   1.396   1_565  A
C596        F597   1.358       .  S
C601        C602   1.395       .  A
C601        C606   1.391       .  A
C601        H608   1.083       .  S
C602        C603   1.401       .  A
C603        C604   1.400       .  A
C603        F610   1.358       .  S
C604        C605   1.420       .  A
C604        H609   1.068       .  S
C605        C606   1.440       .  A
C606        F607   1.359       .  S
C611        C612   1.429       .  A
C611        C616   1.396       .  A
C611        H618   1.083       .  S
C612        C613   1.416       .  A
C613        C614   1.397       .  A
C613        F620   1.327       .  S
C614        C615   1.397       .  A
C614        H619   1.083       .  S
C615        C616   1.402       .  A
C616        F617   1.357       .  S
C621        C622   1.392       .  A
C621        C626   1.399       .  A
C621        H628   1.084       .  S
C622        C623   1.395       .  A
C623        C624   1.393       .  A
C623        F630   1.358       .  S
C624        C625   1.430       .  A
C624        H629   1.064       .  S
C625       C1192   1.617   1_556  S
C625        C626   1.432       .  A
C626        F627   1.330       .  S
C631        C632   1.432       .  A
C631        C636   1.391       .  A
C631        H638   1.076       .  S
C632       C1022   1.625       .  S
C632        C633   1.445       .  A
C633        C634   1.400       .  A
C633        F640   1.345       .  S
C634        C635   1.389       .  A
C634        H639   1.084       .  S
C635        C636   1.392       .  A
C636        F637   1.359       .  S
C641        C646   1.397       .  A
C641        H648   1.083       .  S
C642       C1323   1.403       .  A
C643       C1322   1.403       .  A
C643        C644   1.399       .  A
C643        F650   1.358       .  S
C644       C1325   1.429       .  A
C644        H649   1.082       .  S
C645       C1324   1.429       .  A
C646        F647   1.348       .  S
C651        C652   1.399       .  A
C651        C656   1.404       .  A
C651        H658   1.083       .  S
C652        C653   1.397       .  A
C653        C654   1.391       .  A
C653        F660   1.358       .  S
C654        C655   1.429       .  A
C654        H659   1.077       .  S
C655        C656   1.435       .  A
C656        F657   1.355       .  S
C661        C662   1.420       .  A
C661        C666   1.396       .  A
C661        H668   1.050       .  S
C662        C663   1.445       .  A
C663        C664   1.397       .  A
C663        F670   1.356       .  S
C664        C665   1.390       .  A
C664        H669   1.084       .  S
C665        C666   1.388       .  A
C666        F667   1.358       .  S
C671        C676   1.396       .  A
C671        H678   1.073       .  S
C672        C673   1.438   1_554  A
C673        C674   1.399       .  A
C673        F680   1.350   1_455  S
C674        C675   1.396   1_556  A
C674        H679   1.083   1_455  S
C676        F677   1.358       .  S
C681        C995   1.605   1_554  S
C681        C832   1.611       .  S
C681       C1012   1.601       .  S
C681        C852   1.700       .  S
C682        C815   1.592       .  S
C682        C851   1.700       .  S
Zn683       O687   1.943       .  S
Zn683       O688   1.997       .  S
Zn683       O692   1.983       .  S
Zn683       O699   1.996       .  S
Zn684       O687   1.952       .  S
Zn684       O689   2.024       .  S
Zn684       O691   2.025       .  S
Zn684       O695   2.012       .  S
Zn685       O687   1.964       .  S
Zn685       O690   2.031       .  S
Zn685       O693   2.008       .  S
Zn685       O696   2.020       .  S
Zn686       O687   1.961       .  S
Zn686       O694   2.001       .  S
Zn686       O697   2.027       .  S
Zn686       O698   2.020       .  S
O688        C700   1.270       .  A
O689        C701   1.275       .  A
O690        C702   1.275       .  A
O691        C700   1.274       .  A
O692        C702   1.269       .  A
O693        C701   1.272       .  A
O694        C703   1.272       .  A
O695        C704   1.274       .  A
O696        C703   1.275       .  A
O697        C704   1.275       .  A
O698        C705   1.273       .  A
O699        C705   1.272       .  A
C700        C835   1.470       .  S
C701        C785   1.486       .  S
C702        C805   1.476       .  S
C703        C792   1.483       .  S
C704        C822   1.485       .  S
C705        C772   1.479       .  S
C706       C1095   1.596       .  S
C706       C1102   1.619       .  S
C706        C782   1.592   1_565  S
C706       C1047   1.703       .  S
C707        C735   1.628       .  S
C707        C745   1.593       .  S
C707        C775   1.602       .  S
C707       C1046   1.703       .  S
Zn708       O712   1.950       .  S
Zn708       O713   2.012       .  S
Zn708       O717   2.028       .  S
Zn708       O724   2.007       .  S
Zn709      O1052   1.967       .  S
Zn709       O720   2.029   1_565  S
Zn710       O882   1.956   1_554  S
Zn710       O715   2.017       .  S
Zn710       O718   2.029       .  S
Zn710       O721   2.025       .  S
Zn711       O712   1.961       .  S
Zn711       O889   1.997       .  S
Zn711      O1062   2.009       .  S
Zn711       O723   2.017       .  S
O712      Zn1049   1.967       .  S
O712       Zn880   1.956       .  S
O714        C726   1.274       .  A
O715        C897   1.275   1_554  A
O716        C725   1.275       .  A
O717        C727   1.274       .  A
O719       Zn881   1.997   1_554  S
O719        C728   1.271       .  A
O720        C729   1.276       .  A
O721        C728   1.274       .  A
O722      Zn1051   2.008   1_545  S
O722        C729   1.273       .  A
O723        C730   1.272       .  A
O724        C730   1.272       .  A
C725        C752   1.485       .  S
C726        C765   1.485       .  S
C727        O885   1.275       .  A
C727        C812   1.488       .  S
C728        C742   1.483       .  S
C729        C845   1.487       .  S
C730        C732   1.467       .  S
C731        C732   1.382       .  A
C731        C736   1.392       .  A
C731        H738   1.085       .  S
C732        C733   1.389       .  A
C733        C734   1.401       .  A
C733        F740   1.358       .  S
C734        C735   1.428       .  A
C734        H739   1.056       .  S
C735        C736   1.456       .  A
C736        F737   1.357       .  S
C741        C742   1.401       .  A
C741        C746   1.399       .  A
C741       H1088   1.083       .  S
C742        C743   1.398       .  A
C743        C744   1.392       .  A
C743        F750   1.358       .  S
C744        C745   1.436       .  A
C744        H749   1.084       .  S
C745        C746   1.420       .  A
C746       F1087   1.337       .  S
F747       C1086   1.337   1_545  S
H748       C1081   1.083   1_545  S
C751        C752   1.400       .  A
C751        C756   1.405       .  A
C751        H758   1.083       .  S
C752        C753   1.398       .  A
C753        C754   1.392       .  A
C754        C755   1.423       .  A
C754       H1099   1.067       .  S
C755       C1046   1.596       .  S
C755        C756   1.433       .  A
C756        F757   1.358       .  S
H759       C1094   1.067       .  S
C761        C762   1.432       .  A
C761        C766   1.394       .  A
C761        H768   1.077       .  S
C762       C1046   1.619       .  S
C762        C763   1.438       .  A
C763        C764   1.401       .  A
C763        F770   1.350       .  S
C764        C765   1.395       .  A
C764        H769   1.084       .  S
C765        C766   1.396       .  A
C766        F767   1.358       .  S
C771        C772   1.395       .  A
C771        C776   1.391       .  A
C771        H778   1.083       .  S
C772        C773   1.401       .  A
C773        C774   1.400       .  A
C773        F780   1.358       .  S
C774        C775   1.420       .  A
C774        H779   1.068       .  S
C775        C776   1.440       .  A
C776        F777   1.359       .  S
C781        C782   1.429       .  A
C781        C786   1.396       .  A
C781        H788   1.083       .  S
C782        C783   1.416       .  A
C783        C784   1.397       .  A
C783        F790   1.327       .  S
C784        C785   1.397       .  A
C784        H789   1.083       .  S
C785        C786   1.402       .  A
C786        F787   1.357       .  S
C791        C792   1.392       .  A
C791        C796   1.399       .  A
C791        H798   1.084       .  S
C792        C793   1.395       .  A
C793        C794   1.393       .  A
C793        F800   1.358       .  S
C794        C795   1.430       .  A
C794        H799   1.064       .  S
C795        C796   1.432       .  A
C796        F797   1.330   1_655  S
C801        C802   1.432       .  A
C801        C806   1.391       .  A
C801        H808   1.076       .  S
C802        C803   1.445       .  A
C803        C804   1.400       .  A
C803        F810   1.345   1_655  S
C804        C805   1.389       .  A
C804        H809   1.084       .  S
C805        C806   1.392       .  A
C806        F807   1.359       .  S
C811        C982   1.400   1_554  A
C811        C816   1.397       .  A
C811        H818   1.083       .  S
C812        C981   1.400       .  A
C813        C814   1.399       .  A
C813        F820   1.358       .  S
C814        H819   1.082       .  S
C815        C986   1.427       .  A
C816        C985   1.427   1_554  A
C816        F817   1.348       .  S
C821        C822   1.399       .  A
C821        C826   1.404       .  A
C821        H828   1.083       .  S
C822        C823   1.397       .  A
C823        C824   1.391       .  A
C823        F830   1.358       .  S
C824        C825   1.429       .  A
C824        H829   1.077       .  S
C825        C851   1.605       .  S
C825        C826   1.435       .  A
C826        F827   1.355       .  S
C831        C832   1.420       .  A
C831        C836   1.396       .  A
C831        H838   1.050       .  S
C832        C833   1.445       .  A
C833        C834   1.397       .  A
C833        F840   1.356   1_554  S
C834        C835   1.390       .  A
C834        H839   1.084       .  S
C835        C836   1.388       .  A
C836        F837   1.358       .  S
C841       C1012   1.425       .  A
C841        C846   1.396       .  A
C841        H848   1.072       .  S
C842        C851   1.601       .  S
C842       C1011   1.425       .  A
C842        C843   1.438       .  A
C843        C844   1.399       .  A
C843        F850   1.350       .  S
C844        C845   1.396       .  A
C844        H849   1.083       .  S
C845       C1016   1.401       .  A
C846       C1015   1.401       .  A
C846        F847   1.358       .  S
C851       C1002   1.611       .  S
C852        C985   1.592   1_554  S
Zn853       O857   1.943       .  S
Zn853       O858   1.997       .  S
Zn853       O862   1.983       .  S
Zn853       O869   1.996       .  S
Zn854       O857   1.952       .  S
Zn854       O859   2.024       .  S
Zn854       O861   2.025       .  S
Zn854       O865   2.012       .  S
Zn855       O857   1.964       .  S
Zn855       O860   2.031       .  S
Zn855       O863   2.008       .  S
Zn855       O866   2.020       .  S
Zn856       O857   1.961       .  S
Zn856       O864   2.001       .  S
Zn856       O867   2.027       .  S
Zn856       O868   2.020       .  S
O858        C870   1.270       .  A
O859        C871   1.275       .  A
O860        C872   1.275       .  A
O861        C870   1.274       .  A
O862        C872   1.269       .  A
O863        C871   1.272       .  A
O864        C873   1.272       .  A
O865        C874   1.274       .  A
O866        C873   1.275       .  A
O867        C874   1.275       .  A
O868        C875   1.273       .  A
O869        C875   1.272       .  A
C870       C1005   1.470       .  S
C871        C955   1.486       .  S
C872        C975   1.476       .  S
C873        C962   1.483       .  S
C874        C992   1.485       .  S
C875        C942   1.479       .  S
C876       C1265   1.596       .  S
C876       C1272   1.619       .  S
C876        C952   1.592   1_565  S
C876       C1217   1.703       .  S
C877        C905   1.628       .  S
C877        C915   1.593       .  S
C877        C945   1.602       .  S
C877       C1216   1.703       .  S
Zn878       O882   1.950       .  S
Zn878       O883   2.012       .  S
Zn878       O887   2.028       .  S
Zn878       O894   2.007       .  S
Zn879      O1222   1.967       .  S
Zn879       O890   2.029   1_565  S
Zn880       O885   2.017       .  S
Zn880       O888   2.029       .  S
Zn880       O891   2.025       .  S
Zn881       O882   1.961       .  S
Zn881      O1232   2.009   1_556  S
Zn881       O893   2.017       .  S
O882      Zn1219   1.967       .  S
O884        C896   1.274       .  A
O886        C895   1.275       .  A
O887        C897   1.274       .  A
O889        C898   1.271       .  A
O890        C899   1.276       .  A
O891        C898   1.274       .  A
O892      Zn1221   2.008   1_544  S
O892        C899   1.273   1_554  A
O893        C900   1.272       .  A
O894        C900   1.272       .  A
C895        C922   1.485       .  S
C896        C935   1.485       .  S
C897        C982   1.488       .  S
C898        C912   1.483       .  S
C899       C1015   1.487   1_556  S
C900        C902   1.467       .  S
C901        C902   1.382       .  A
C901        C906   1.392       .  A
C901        H908   1.085       .  S
C902        C903   1.389       .  A
C903        C904   1.401       .  A
C903        F910   1.358       .  S
C904        C905   1.428       .  A
C904        H909   1.056       .  S
C905        C906   1.456       .  A
C906        F907   1.357       .  S
C911        C912   1.401       .  A
C911        C916   1.399       .  A
C911       H1258   1.083       .  S
C912        C913   1.398       .  A
C913        C914   1.392       .  A
C913        F920   1.358       .  S
C914        C915   1.436       .  A
C914        H919   1.084       .  S
C915        C916   1.420       .  A
C916       F1257   1.337       .  S
F917       C1256   1.337   1_545  S
H918       C1251   1.083   1_545  S
C921        C922   1.400       .  A
C921        C926   1.405       .  A
C921        H928   1.083       .  S
C922        C923   1.398       .  A
C923        C924   1.392       .  A
C924        C925   1.423       .  A
C924       H1269   1.067       .  S
C925       C1216   1.596       .  S
C925        C926   1.433       .  A
C926        F927   1.358       .  S
H929       C1264   1.067       .  S
C931        C932   1.432       .  A
C931        C936   1.394       .  A
C931        H938   1.077       .  S
C932       C1216   1.619       .  S
C932        C933   1.438       .  A
C933        C934   1.401       .  A
C933        F940   1.350       .  S
C934        C935   1.395       .  A
C934        H939   1.084       .  S
C935        C936   1.396       .  A
C936        F937   1.358       .  S
C941        C942   1.395       .  A
C941        C946   1.391       .  A
C941        H948   1.083       .  S
C942        C943   1.401       .  A
C943        C944   1.400       .  A
C943        F950   1.358       .  S
C944        C945   1.420       .  A
C944        H949   1.068       .  S
C945        C946   1.440       .  A
C946        F947   1.359       .  S
C951        C952   1.429       .  A
C951        C956   1.396       .  A
C951        H958   1.083       .  S
C952        C953   1.416       .  A
C953        C954   1.397       .  A
C953        F960   1.327       .  S
C954        C955   1.397       .  A
C954        H959   1.083       .  S
C955        C956   1.402       .  A
C956        F957   1.357       .  S
C961        C962   1.392       .  A
C961        C966   1.399       .  A
C961        H968   1.084       .  S
C962        C963   1.395       .  A
C963        C964   1.393       .  A
C963        F970   1.358       .  S
C964        C965   1.430       .  A
C964        H969   1.064       .  S
C965        C966   1.432       .  A
C966        F967   1.330   1_655  S
C971        C972   1.432       .  A
C971        C976   1.391       .  A
C971        H978   1.076       .  S
C972        C973   1.445       .  A
C973        C974   1.400       .  A
C973        F980   1.345   1_655  S
C974        C975   1.389       .  A
C974        H979   1.084       .  S
C975        C976   1.392       .  A
C976        F977   1.359       .  S
C981        C986   1.397       .  A
C981        H988   1.083       .  S
C983        C984   1.399       .  A
C983        F990   1.358       .  S
C984        H989   1.082       .  S
C986        F987   1.348       .  S
C991        C992   1.399       .  A
C991        C996   1.404       .  A
C991        H998   1.083       .  S
C992        C993   1.397       .  A
C993        C994   1.391       .  A
C993       F1000   1.358       .  S
C994        C995   1.429       .  A
C994        H999   1.077       .  S
C995        C996   1.435       .  A
C996        F997   1.355       .  S
C1001      C1002   1.420       .  A
C1001      C1006   1.396       .  A
C1001      H1008   1.050       .  S
C1002      C1003   1.445       .  A
C1003      C1004   1.397       .  A
C1003      F1010   1.356       .  S
C1004      C1005   1.390       .  A
C1004      H1009   1.084       .  S
C1005      C1006   1.388       .  A
C1006      F1007   1.358       .  S
C1011      C1016   1.396       .  A
C1011      H1018   1.072       .  S
C1012      C1013   1.438   1_554  A
C1013      C1014   1.399       .  A
C1013      F1020   1.350       .  S
C1014      C1015   1.396   1_556  A
C1014      H1019   1.083       .  S
C1016      F1017   1.358       .  S
C1021      C1335   1.605   1_554  S
C1021      C1172   1.611       .  S
C1021      C1352   1.601       .  S
C1021      C1192   1.700       .  S
C1022      C1155   1.592       .  S
C1022      C1191   1.700       .  S
Zn1023     O1027   1.943       .  S
Zn1023     O1028   1.997       .  S
Zn1023     O1032   1.983       .  S
Zn1023     O1039   1.996       .  S
Zn1024     O1027   1.952       .  S
Zn1024     O1029   2.024       .  S
Zn1024     O1031   2.025       .  S
Zn1024     O1035   2.012       .  S
Zn1025     O1027   1.964       .  S
Zn1025     O1030   2.031       .  S
Zn1025     O1033   2.008       .  S
Zn1025     O1036   2.020       .  S
Zn1026     O1027   1.961       .  S
Zn1026     O1034   2.001       .  S
Zn1026     O1037   2.027       .  S
Zn1026     O1038   2.020       .  S
O1028      C1040   1.270       .  A
O1029      C1041   1.275       .  A
O1030      C1042   1.275       .  A
O1031      C1040   1.274       .  A
O1032      C1042   1.269       .  A
O1033      C1041   1.272       .  A
O1034      C1043   1.272       .  A
O1035      C1044   1.274       .  A
O1036      C1043   1.275       .  A
O1037      C1044   1.275       .  A
O1038      C1045   1.273       .  A
O1039      C1045   1.272       .  A
C1040      C1175   1.470       .  S
C1041      C1125   1.486       .  S
C1042      C1145   1.476       .  S
C1043      C1132   1.483       .  S
C1044      C1162   1.485       .  S
C1045      C1112   1.479       .  S
C1046      C1122   1.592       .  S
C1047      C1075   1.628       .  S
C1047      C1085   1.593       .  S
C1047      C1115   1.602       .  S
Zn1048     O1052   1.950       .  S
Zn1048     O1053   2.012       .  S
Zn1048     O1057   2.028       .  S
Zn1048     O1064   2.007       .  S
Zn1049     O1060   2.029       .  S
Zn1050     O1222   1.956   1_554  S
Zn1050     O1055   2.017       .  S
Zn1050     O1058   2.029       .  S
Zn1050     O1061   2.025       .  S
Zn1051     O1052   1.961       .  S
Zn1051     O1229   1.997       .  S
Zn1051     O1063   2.017       .  S
O1052     Zn1220   1.956       .  S
O1054      C1066   1.274       .  A
O1055      C1237   1.275   1_554  A
O1056      C1065   1.275       .  A
O1057      C1067   1.274       .  A
O1059     Zn1221   1.997   1_554  S
O1059      C1068   1.271       .  A
O1060      C1069   1.276       .  A
O1061      C1068   1.274       .  A
O1062      C1069   1.273       .  A
O1063      C1070   1.272       .  A
O1064      C1070   1.272       .  A
C1065      C1092   1.485       .  S
C1066      C1105   1.485       .  S
C1067      O1225   1.275       .  A
C1067      C1152   1.488       .  S
C1068      C1082   1.483       .  S
C1069      C1185   1.487       .  S
C1070      C1072   1.467       .  S
C1071      C1072   1.382       .  A
C1071      C1076   1.392       .  A
C1071      H1078   1.085       .  S
C1072      C1073   1.389       .  A
C1073      C1074   1.401       .  A
C1073      F1080   1.358       .  S
C1074      C1075   1.428       .  A
C1074      H1079   1.056       .  S
C1075      C1076   1.456       .  A
C1076      F1077   1.357       .  S
C1081      C1082   1.401       .  A
C1081      C1086   1.399       .  A
C1082      C1083   1.398       .  A
C1083      C1084   1.392       .  A
C1083      F1090   1.358       .  S
C1084      C1085   1.436       .  A
C1084      H1089   1.084       .  S
C1085      C1086   1.420       .  A
C1091      C1092   1.400       .  A
C1091      C1096   1.405       .  A
C1091      H1098   1.083   1_565  S
C1092      C1093   1.398       .  A
C1093      C1094   1.392       .  A
C1094      C1095   1.423       .  A
C1095      C1096   1.433       .  A
C1096      F1097   1.358   1_565  S
C1101      C1102   1.432   1_545  A
C1101      C1106   1.394       .  A
C1101      H1108   1.077       .  S
C1102      C1103   1.438       .  A
C1103      C1104   1.401       .  A
C1103      F1110   1.350       .  S
C1104      C1105   1.395       .  A
C1104      H1109   1.084       .  S
C1105      C1106   1.396   1_565  A
C1106      F1107   1.358       .  S
C1111      C1112   1.395       .  A
C1111      C1116   1.391       .  A
C1111      H1118   1.083       .  S
C1112      C1113   1.401       .  A
C1113      C1114   1.400       .  A
C1113      F1120   1.358       .  S
C1114      C1115   1.420       .  A
C1114      H1119   1.068       .  S
C1115      C1116   1.440       .  A
C1116      F1117   1.359       .  S
C1121      C1122   1.429       .  A
C1121      C1126   1.396       .  A
C1121      H1128   1.083       .  S
C1122      C1123   1.416       .  A
C1123      C1124   1.397       .  A
C1123      F1130   1.327       .  S
C1124      C1125   1.397       .  A
C1124      H1129   1.083       .  S
C1125      C1126   1.402       .  A
C1126      F1127   1.357       .  S
C1131      C1132   1.392       .  A
C1131      C1136   1.399       .  A
C1131      H1138   1.084       .  S
C1132      C1133   1.395       .  A
C1133      C1134   1.393       .  A
C1133      F1140   1.358       .  S
C1134      C1135   1.430       .  A
C1134      H1139   1.064       .  S
C1135      C1136   1.432       .  A
C1136      F1137   1.330   1_655  S
C1141      C1142   1.432       .  A
C1141      C1146   1.391       .  A
C1141      H1148   1.076       .  S
C1142      C1143   1.445       .  A
C1143      C1144   1.400       .  A
C1143      F1150   1.345   1_655  S
C1144      C1145   1.389       .  A
C1144      H1149   1.084       .  S
C1145      C1146   1.392       .  A
C1146      F1147   1.359       .  S
C1151      C1322   1.400   1_554  A
C1151      C1156   1.397       .  A
C1151      H1158   1.083       .  S
C1152      C1321   1.400       .  A
C1153      C1154   1.399       .  A
C1153      F1160   1.358       .  S
C1154      H1159   1.082       .  S
C1155      C1326   1.428       .  A
C1156      C1325   1.428   1_554  A
C1156      F1157   1.348       .  S
C1161      C1162   1.399       .  A
C1161      C1166   1.404       .  A
C1161      H1168   1.083       .  S
C1162      C1163   1.397       .  A
C1163      C1164   1.391       .  A
C1163      F1170   1.358       .  S
C1164      C1165   1.429       .  A
C1164      H1169   1.077       .  S
C1165      C1191   1.605       .  S
C1165      C1166   1.435       .  A
C1166      F1167   1.355       .  S
C1171      C1172   1.420       .  A
C1171      C1176   1.396       .  A
C1171      H1178   1.050       .  S
C1172      C1173   1.445       .  A
C1173      C1174   1.397       .  A
C1173      F1180   1.356   1_554  S
C1174      C1175   1.390       .  A
C1174      H1179   1.084       .  S
C1175      C1176   1.388       .  A
C1176      F1177   1.358       .  S
C1181      C1352   1.425       .  A
C1181      C1186   1.396       .  A
C1181      H1188   1.073       .  S
C1182      C1191   1.601       .  S
C1182      C1351   1.425       .  A
C1182      C1183   1.438       .  A
C1183      C1184   1.399       .  A
C1183      F1190   1.350       .  S
C1184      C1185   1.396       .  A
C1184      H1189   1.083       .  S
C1185      C1356   1.401       .  A
C1186      C1355   1.401       .  A
C1186      F1187   1.358       .  S
C1191      C1342   1.611       .  S
C1192      C1325   1.592   1_554  S
Zn1193     O1197   1.943       .  S
Zn1193     O1198   1.997       .  S
Zn1193     O1202   1.983       .  S
Zn1193     O1209   1.996       .  S
Zn1194     O1197   1.952       .  S
Zn1194     O1199   2.024       .  S
Zn1194     O1201   2.025       .  S
Zn1194     O1205   2.012       .  S
Zn1195     O1197   1.964       .  S
Zn1195     O1200   2.031       .  S
Zn1195     O1203   2.008       .  S
Zn1195     O1206   2.020       .  S
Zn1196     O1197   1.961       .  S
Zn1196     O1204   2.001       .  S
Zn1196     O1207   2.027       .  S
Zn1196     O1208   2.020       .  S
O1198      C1210   1.270       .  A
O1199      C1211   1.275       .  A
O1200      C1212   1.275       .  A
O1201      C1210   1.274       .  A
O1202      C1212   1.269       .  A
O1203      C1211   1.272       .  A
O1204      C1213   1.272       .  A
O1205      C1214   1.274       .  A
O1206      C1213   1.275       .  A
O1207      C1214   1.275       .  A
O1208      C1215   1.273       .  A
O1209      C1215   1.272       .  A
C1210      C1345   1.470       .  S
C1211      C1295   1.486       .  S
C1212      C1315   1.476       .  S
C1213      C1302   1.483       .  S
C1214      C1332   1.485       .  S
C1215      C1282   1.479       .  S
C1216      C1292   1.592       .  S
C1217      C1245   1.628       .  S
C1217      C1255   1.593       .  S
C1217      C1285   1.602       .  S
Zn1218     O1222   1.950       .  S
Zn1218     O1223   2.012       .  S
Zn1218     O1227   2.028       .  S
Zn1218     O1234   2.007       .  S
Zn1219     O1230   2.029       .  S
Zn1220     O1225   2.017       .  S
Zn1220     O1228   2.029       .  S
Zn1220     O1231   2.025       .  S
Zn1221     O1222   1.961       .  S
Zn1221     O1233   2.017       .  S
O1224      C1236   1.274       .  A
O1226      C1235   1.275       .  A
O1227      C1237   1.274       .  A
O1229      C1238   1.271       .  A
O1230      C1239   1.276       .  A
O1231      C1238   1.274       .  A
O1232      C1239   1.273   1_554  A
O1233      C1240   1.272       .  A
O1234      C1240   1.272       .  A
C1235      C1262   1.485       .  S
C1236      C1275   1.485       .  S
C1237      C1322   1.488       .  S
C1238      C1252   1.483       .  S
C1239      C1355   1.487   1_556  S
C1240      C1242   1.467       .  S
C1241      C1242   1.382       .  A
C1241      C1246   1.392       .  A
C1241      H1248   1.085       .  S
C1242      C1243   1.389       .  A
C1243      C1244   1.401       .  A
C1243      F1250   1.358       .  S
C1244      C1245   1.428       .  A
C1244      H1249   1.056       .  S
C1245      C1246   1.456       .  A
C1246      F1247   1.357       .  S
C1251      C1252   1.401       .  A
C1251      C1256   1.399       .  A
C1252      C1253   1.398       .  A
C1253      C1254   1.392       .  A
C1253      F1260   1.358       .  S
C1254      C1255   1.436       .  A
C1254      H1259   1.084       .  S
C1255      C1256   1.420       .  A
C1261      C1262   1.400       .  A
C1261      C1266   1.405       .  A
C1261      H1268   1.083   1_565  S
C1262      C1263   1.398       .  A
C1263      C1264   1.392       .  A
C1264      C1265   1.423       .  A
C1265      C1266   1.433       .  A
C1266      F1267   1.358   1_565  S
C1271      C1272   1.432   1_545  A
C1271      C1276   1.394       .  A
C1271      H1278   1.077       .  S
C1272      C1273   1.438       .  A
C1273      C1274   1.401       .  A
C1273      F1280   1.350       .  S
C1274      C1275   1.395       .  A
C1274      H1279   1.084       .  S
C1275      C1276   1.396   1_565  A
C1276      F1277   1.358       .  S
C1281      C1282   1.395       .  A
C1281      C1286   1.391       .  A
C1281      H1288   1.083       .  S
C1282      C1283   1.401       .  A
C1283      C1284   1.400       .  A
C1283      F1290   1.358       .  S
C1284      C1285   1.420       .  A
C1284      H1289   1.068       .  S
C1285      C1286   1.440       .  A
C1286      F1287   1.359       .  S
C1291      C1292   1.429       .  A
C1291      C1296   1.396       .  A
C1291      H1298   1.083       .  S
C1292      C1293   1.416       .  A
C1293      C1294   1.397       .  A
C1293      F1300   1.327       .  S
C1294      C1295   1.397       .  A
C1294      H1299   1.083       .  S
C1295      C1296   1.402       .  A
C1296      F1297   1.357       .  S
C1301      C1302   1.392       .  A
C1301      C1306   1.399       .  A
C1301      H1308   1.084       .  S
C1302      C1303   1.395       .  A
C1303      C1304   1.393       .  A
C1303      F1310   1.358       .  S
C1304      C1305   1.430       .  A
C1304      H1309   1.064       .  S
C1305      C1306   1.432       .  A
C1306      F1307   1.330   1_655  S
C1311      C1312   1.432       .  A
C1311      C1316   1.391       .  A
C1311      H1318   1.076       .  S
C1312      C1313   1.445       .  A
C1313      C1314   1.400       .  A
C1313      F1320   1.345   1_655  S
C1314      C1315   1.389       .  A
C1314      H1319   1.084       .  S
C1315      C1316   1.392       .  A
C1316      F1317   1.359       .  S
C1321      C1326   1.397       .  A
C1321      H1328   1.083       .  S
C1323      C1324   1.399       .  A
C1323      F1330   1.358       .  S
C1324      H1329   1.082       .  S
C1326      F1327   1.348       .  S
C1331      C1332   1.399       .  A
C1331      C1336   1.404       .  A
C1331      H1338   1.083       .  S
C1332      C1333   1.397       .  A
C1333      C1334   1.391       .  A
C1333      F1340   1.358       .  S
C1334      C1335   1.429       .  A
C1334      H1339   1.077       .  S
C1335      C1336   1.435       .  A
C1336      F1337   1.355       .  S
C1341      C1342   1.420       .  A
C1341      C1346   1.396       .  A
C1341      H1348   1.050       .  S
C1342      C1343   1.445       .  A
C1343      C1344   1.397       .  A
C1343      F1350   1.356       .  S
C1344      C1345   1.390       .  A
C1344      H1349   1.084       .  S
C1345      C1346   1.388       .  A
C1346      F1347   1.358       .  S
C1351      C1356   1.396       .  A
C1351      H1358   1.073       .  S
C1352      C1353   1.438   1_554  A
C1353      C1354   1.399       .  A
C1353      F1360   1.350       .  S
C1354      C1355   1.396   1_556  A
C1354      H1359   1.083       .  S
C1356      F1357   1.358       .  S
