geometry optimzed in LAMMPS
_audit_creation_date              2020-11-30 
_audit_creation_method            'lammps2cif' 
_symmetry_space_group_name_H-M    'P1' 
_symmetry_Int_Tables_number       1 
_symmetry_cell_setting            triclinic 
loop_ 
_symmetry_equiv_pos_as_xyz 
  x,y,z 
_cell_length_a                    49.12661235 
_cell_length_b                    49.33013237597859 
_cell_length_c                    49.00766168875121 
_cell_angle_alpha                 89.90950763855862 
_cell_angle_beta                  90.04852567359927 
_cell_angle_gamma                 90.0103572210304 
loop_ 
_atom_site_label 
_atom_site_type_symbol 
_atom_site_fract_x 
_atom_site_fract_y 
_atom_site_fract_z 
_atom_site_charge 
N1          N  0.52068285  0.20944495  0.04711596    -0.27200
N2          N  0.49810980  0.20761595  0.06162933    -0.35100
C3          C  0.47851242  0.19618293  0.04651575     0.01100
C4          C  0.48899153  0.19037614  0.02102369     0.07100
C5          C  0.51596656  0.19885510  0.02215193    -0.06000
H6          H  0.45794692  0.19275145  0.05359219     0.07800
H7          H  0.53069575  0.19835509  0.00576587     0.09000
Cu8        Cu  0.49325767  0.22263884  0.10046571     0.44200
Cu9        Cu  0.55539668  0.22859887  0.06248272     0.42000
Cu10       Cu  0.54219189  0.26894331  0.12511823     0.43900
N11         N  0.48888178  0.24272462  0.13695482    -0.34600
N12         N  0.50633556  0.26106321  0.14576656    -0.28900
C13         C  0.49768201  0.27066004  0.16995395    -0.05000
C14         C  0.47371137  0.25740141  0.17668135     0.07200
C15         C  0.46877802  0.23989250  0.15522398     0.01000
H16         H  0.50852387  0.28541547  0.18213169     0.08700
H17         H  0.45177376  0.22614453  0.15292299     0.07800
N18         N  0.57946340  0.26585902  0.10568109    -0.36100
N19         N  0.58467847  0.25074438  0.08400279    -0.28200
C20         C  0.61160976  0.25170217  0.07894285    -0.03500
C21         C  0.62386795  0.26826623  0.09826236     0.05100
C22         C  0.60276344  0.27686717  0.11477695     0.03200
H23         H  0.62149963  0.24097943  0.06246811     0.08300
H24         H  0.60427303  0.28934052  0.13284660     0.07200
N25         N  0.25174349  0.97225592  0.54202061    -0.27200
N26         N  0.24661863  0.98996994  0.52246139    -0.35100
C27         C  0.22937843  0.97906547  0.50437993     0.01100
C28         C  0.22305828  0.95297492  0.51264598     0.07100
C29         C  0.23773924  0.94928980  0.53670328    -0.06000
H30         H  0.22304937  0.98916186  0.48583704     0.07800
H31         H  0.23855499  0.93119655  0.54916756     0.09000
Cu32       Cu  0.26545743  0.02701411  0.51839369     0.44200
Cu33       Cu  0.27879916  0.98130361  0.57366437     0.42000
Cu34       Cu  0.32406121  0.03977920  0.55810061     0.43900
N35         N  0.29030076  0.05995538  0.51171412    -0.34600
N36         N  0.31306121  0.06425611  0.52536291    -0.28900
C37         C  0.32484382  0.08705978  0.51582256    -0.05000
C38         C  0.30840095  0.09761352  0.49536679     0.07200
C39         C  0.28675036  0.07981933  0.49334184     0.01000
H40         H  0.34336144  0.09583607  0.52386950     0.08700
H41         H  0.26963430  0.08114462  0.47949757     0.07800
N42         N  0.32365429  0.01842952  0.59469472    -0.36100
N43         N  0.30652992  0.99863084  0.60097451    -0.28200
C44         C  0.30824511  0.99375043  0.62799063    -0.03500
C45         C  0.32753149  0.01104269  0.63913239     0.05100
C46         C  0.33694779  0.02618815  0.61735473     0.03200
H47         H  0.29530540  0.97972696  0.63895365     0.08300
H48         H  0.35049634  0.04345905  0.61837461     0.07200
N49         N  0.02741126  0.47445667  0.26811254    -0.27200
N50         N  0.03860233  0.45039646  0.27226348    -0.35100
C51         C  0.02487383  0.43160491  0.25806239     0.01100
C52         C  0.00376490  0.44413142  0.24435137     0.07100
C53         C  0.00579711  0.47134211  0.25133853    -0.06000
H54         H  0.03014054  0.41031558  0.25754051     0.07800
H55         H  0.99316045  0.48775519  0.24396422     0.09000
Cu56       Cu  0.07342222  0.44304071  0.29479262     0.44200
Cu57       Cu  0.04405159  0.51040385  0.28373889     0.42000
Cu58       Cu  0.11323108  0.50005456  0.31048021     0.43900
N59         N  0.11249375  0.43960348  0.31000889    -0.34600
N60         N  0.12802146  0.46096804  0.31443890    -0.28900
C61         C  0.15312054  0.45258741  0.32150740    -0.05000
C62         C  0.15328892  0.42447626  0.32172573     0.07200
C63         C  0.12709978  0.41698165  0.31440709     0.01000
H64         H  0.16994470  0.46597399  0.32611881     0.08700
H65         H  0.11951743  0.39662331  0.31132857     0.07800
N66         N  0.09325203  0.53699367  0.30966134    -0.36100
N67         N  0.06824053  0.54120579  0.30057785    -0.28200
C68         C  0.06204927  0.56763351  0.30416805    -0.03500
C69         C  0.08428957  0.58060494  0.31600470     0.05100
C70         C  0.10354080  0.56033830  0.31914957     0.03200
H71         H  0.04287645  0.57672445  0.29832596     0.08300
H72         H  0.12358325  0.56212450  0.32808806     0.07200
C73         C  0.30964686  0.29820157  0.35276468     0.80300
N74         N  0.30806632  0.27850801  0.37214325    -0.78000
C75         C  0.32793505  0.25948110  0.37448900     0.82700
N76         N  0.34883556  0.25951446  0.35640579    -0.78000
C77         C  0.35047869  0.27885673  0.33674405     0.82800
N78         N  0.33118393  0.29853766  0.33536433    -0.79700
C79         C  0.59909339  0.56373353  0.60762285     0.45500
H80         H  0.58573029  0.55212392  0.59356040    -0.03500
C81         C  0.63043731  0.59078985  0.64081352     0.45600
H82         H  0.64383678  0.60202203  0.65514659    -0.03500
C83         C  0.59268576  0.59432961  0.60854671    -0.17200
C84         C  0.59779260  0.55395748  0.63741217    -0.16900
C85         C  0.62950025  0.56235725  0.60011578    -0.17300
C86         C  0.60852899  0.60835329  0.62697583    -0.17300
C87         C  0.61469138  0.56780449  0.65464352    -0.16900
C88         C  0.64581179  0.57722799  0.61729813    -0.17200
N89         N  0.22701949  0.91287912  0.03963824    -0.27200
N90         N  0.22869314  0.89803007  0.01726298    -0.35100
C91         C  0.24156840  0.91215736  0.99779315     0.01100
C92         C  0.24865001  0.93721140  0.00814901     0.07100
C93         C  0.23928607  0.93699430  0.03490718    -0.06000
H94         H  0.24463503  0.90502996  0.97715225     0.07800
H95         H  0.23984372  0.95366050  0.04921829     0.09000
Cu96       Cu  0.21074797  0.86054719  0.01184142     0.44200
Cu97       Cu  0.20466602  0.89975431  0.07360710     0.42000
Cu98       Cu  0.15658779  0.84456871  0.05620350     0.43900
N99         N  0.18646843  0.82680650  0.00642759    -0.34600
N100        N  0.16506699  0.82174491  0.02188207    -0.28900
C101        C  0.15269470  0.79912966  0.01283596    -0.05000
C102        C  0.16731387  0.78940186  0.99078229     0.07200
C103        C  0.18860781  0.80742962  0.98732894     0.01000
H104        H  0.13495920  0.78999050  0.02214772     0.08700
H105        H  0.20430306  0.80671952  0.97187234     0.07800
N106        N  0.15971716  0.86254260  0.09420002    -0.36100
N107        N  0.17794676  0.88105262  0.10120894    -0.28200
C108        C  0.17696126  0.88435562  0.12850423    -0.03500
C109        C  0.15703973  0.86731078  0.13901881     0.05100
C110        C  0.14653096  0.85396602  0.11660308     0.03200
H111        H  0.19029885  0.89760729  0.13992233     0.08300
H112        H  0.13175611  0.83769784  0.11675307     0.07200
N113        N  0.43418471  0.41747293  0.76250225    -0.27200
N114        N  0.42208437  0.44122806  0.76531325    -0.35100
C115        C  0.43651710  0.46019229  0.75217806     0.01100
C116        C  0.45888979  0.44806335  0.74011026     0.07100
C117        C  0.45685876  0.42085232  0.74730232    -0.06000
H118        H  0.43066067  0.48129318  0.75128752     0.07800
H119        H  0.47034803  0.40459582  0.74130664     0.09000
Cu120      Cu  0.38504263  0.44797809  0.78408395     0.44200
Cu121      Cu  0.41788464  0.38197537  0.77884294     0.42000
Cu122      Cu  0.34745287  0.39097506  0.80384626     0.43900
N123        N  0.34530537  0.45090627  0.79756227    -0.34600
N124        N  0.33069626  0.42934480  0.80381106    -0.28900
C125        C  0.30545708  0.43721988  0.81087762    -0.05000
C126        C  0.30425557  0.46523408  0.80921060     0.07200
C127        C  0.32993817  0.47320478  0.80071077     0.01000
H128        H  0.28946497  0.42362841  0.81746121     0.08700
H129        H  0.33689468  0.49365530  0.79680994     0.07800
N130        N  0.36968810  0.35553333  0.80668711    -0.36100
N131        N  0.39494691  0.35195768  0.79807257    -0.28200
C132        C  0.40248742  0.32625997  0.80357206    -0.03500
C133        C  0.38088221  0.31307641  0.81612936     0.05100
C134        C  0.36055917  0.33241216  0.81779555     0.03200
H135        H  0.42199524  0.31767396  0.79813415     0.08300
H136        H  0.34043346  0.33001954  0.82638304     0.07200
N137        N  0.94376387  0.68794546  0.54638997    -0.27200
N138        N  0.96567870  0.68932441  0.56196867    -0.35100
C139        C  0.98555887  0.70220608  0.54850194     0.01100
C140        C  0.97595501  0.70948641  0.52303207     0.07100
C141        C  0.94920198  0.70032195  0.52239599    -0.06000
H142        H  0.00585345  0.70529887  0.55649891     0.07800
H143        H  0.93530579  0.70122900  0.50528308     0.09000
Cu144      Cu  0.96965840  0.67136441  0.59965663     0.44200
Cu145      Cu  0.90933711  0.66616391  0.55852800     0.42000
Cu146      Cu  0.92146600  0.62207801  0.61910636     0.43900
N147        N  0.97343964  0.64895867  0.63487037    -0.34600
N148        N  0.95627003  0.62955420  0.64177272    -0.28900
C149        C  0.96446896  0.61846534  0.66553093    -0.05000
C150        C  0.98775469  0.63191957  0.67396566     0.07200
C151        C  0.99281733  0.65109306  0.65403359     0.01000
H152        H  0.95374879  0.60257817  0.67632702     0.08700
H153        H  0.00936429  0.66556166  0.65347495     0.07800
N154        N  0.88556998  0.62369016  0.59688297    -0.36100
N155        N  0.88061169  0.64015042  0.57608244    -0.28200
C156        C  0.85422978  0.63766651  0.56898422    -0.03500
C157        C  0.84214085  0.61860710  0.58593606     0.05100
C158        C  0.86268640  0.61018718  0.60325763     0.03200
H159        H  0.84447116  0.64927790  0.55299227     0.08300
H160        H  0.86080799  0.59638376  0.62032943     0.07200
C161        C  0.10742312  0.60825207  0.83654252     0.80300
N162        N  0.12603909  0.58790740  0.83525394    -0.78000
C163        C  0.14842773  0.58829903  0.85154070     0.82700
N164        N  0.15162682  0.60878135  0.86974033    -0.78000
C165        C  0.13269100  0.62867435  0.87197140     0.82800
N166        N  0.11070926  0.62837577  0.85518328    -0.79700
C167        C  0.36911110  0.07080061  0.87847033     0.45500
H168        H  0.38105420  0.05897273  0.89362893    -0.03500
C169        C  0.34111891  0.09846098  0.84284039     0.45600
H170        H  0.32971612  0.11027754  0.82732273    -0.03500
C171        C  0.33823649  0.07161798  0.88447826    -0.17200
C172        C  0.37776647  0.10070711  0.87623125    -0.16900
C173        C  0.37104831  0.05961243  0.84928250    -0.17300
C174        C  0.32361740  0.08724935  0.86622937    -0.17300
C175        C  0.36327918  0.11514836  0.85714351    -0.16900
C176        C  0.35579959  0.07383887  0.83069038    -0.17200
N177        N  0.01872782  0.18311480  0.94322312    -0.27200
N178        N  0.99495405  0.17694979  0.93214458    -0.35100
C179        C  0.97484994  0.18538035  0.94859650     0.01100
C180        C  0.98622480  0.19771385  0.97121739     0.07100
C181        C  0.01417073  0.19603082  0.96707272    -0.06000
H182        H  0.95341643  0.18333349  0.94394879     0.07800
H183        H  0.03000310  0.20346796  0.98046707     0.09000
Cu184      Cu  0.98961895  0.15923738  0.89427937     0.44200
Cu185      Cu  0.05602480  0.17322040  0.92489289     0.42000
Cu186      Cu  0.04862808  0.15015808  0.85424260     0.43900
N187        N  0.98811832  0.14594044  0.85432433    -0.34600
N188        N  0.01008077  0.14339010  0.83908093    -0.28900
C189        C  0.00274176  0.13545640  0.81389769    -0.05000
C190        C  0.97467523  0.13277895  0.81329855     0.07200
C191        C  0.96611985  0.13961353  0.83935223     0.01000
H192        H  0.01685805  0.13171475  0.79740252     0.08700
H193        H  0.94541622  0.14059435  0.84677639     0.07800
N194        N  0.08522706  0.15228497  0.87478725    -0.36100
N195        N  0.08843056  0.15987074  0.90045854    -0.28200
C196        C  0.11483475  0.15645042  0.90733587    -0.03500
C197        C  0.12880979  0.14632258  0.88483603     0.05100
C198        C  0.10918567  0.14403626  0.86469888     0.03200
H199        H  0.12312260  0.16075998  0.92731414     0.08300
H200        H  0.11171421  0.13593739  0.84437227     0.07200
N201        N  0.75858485  0.40991926  0.45634770    -0.27200
N202        N  0.75419193  0.39373423  0.47739287    -0.35100
C203        C  0.73699692  0.40577039  0.49482402     0.01100
C204        C  0.73022446  0.43096773  0.48449804     0.07100
C205        C  0.74443083  0.43304804  0.46009216    -0.06000
H206        H  0.73045842  0.39701699  0.51398432     0.07800
H207        H  0.74426137  0.44994450  0.44599646     0.09000
Cu208      Cu  0.77266703  0.35662246  0.48265693     0.44200
Cu209      Cu  0.78331968  0.39846730  0.42371683     0.42000
Cu210      Cu  0.82521770  0.33767520  0.43613600     0.43900
N211        N  0.79498424  0.32150847  0.48652435    -0.34600
N212        N  0.81528712  0.31481255  0.47023031    -0.28900
C213        C  0.82534653  0.29066469  0.47820681    -0.05000
C214        C  0.81029950  0.28174483  0.50037540     0.07200
C215        C  0.79131347  0.30185285  0.50507878     0.01000
H216        H  0.84156905  0.27992122  0.46794829     0.08700
H217        H  0.77583658  0.30217330  0.52076897     0.07800
N218        N  0.82411777  0.35898032  0.39962119    -0.36100
N219        N  0.80821014  0.38005984  0.39457772    -0.28200
C220        C  0.80960815  0.38598098  0.36776004    -0.03500
C221        C  0.82741703  0.36794323  0.35541442     0.05100
C222        C  0.83624665  0.35124550  0.37633284     0.03200
H223        H  0.79781373  0.40168613  0.35785372     0.08300
H224        H  0.84902645  0.33348863  0.37444237     0.07200
N225        N  0.52210056  0.90855398  0.72737033    -0.27200
N226        N  0.53434453  0.93222237  0.72415375    -0.35100
C227        C  0.52111531  0.95124066  0.73840425     0.01100
C228        C  0.49920736  0.93932999  0.75128755     0.07100
C229        C  0.50020018  0.91220358  0.74365152    -0.06000
H230        H  0.52738823  0.97222767  0.73965489     0.07800
H231        H  0.48681789  0.89615201  0.75047436     0.09000
Cu232      Cu  0.57003503  0.93874980  0.70331822     0.44200
Cu233      Cu  0.53857483  0.87245581  0.71178143     0.42000
Cu234      Cu  0.60987295  0.88210265  0.68898917     0.43900
N235        N  0.60922275  0.94230017  0.68926157    -0.34600
N236        N  0.62488323  0.92101033  0.68511348    -0.28900
C237        C  0.65000037  0.92950800  0.67835284    -0.05000
C238        C  0.64991349  0.95760966  0.67809478     0.07200
C239        C  0.62368109  0.96499310  0.68505582     0.01000
H240        H  0.66696229  0.91624297  0.67393352     0.08700
H241        H  0.61590964  0.98531243  0.68789090     0.07800
N242        N  0.58951805  0.84545035  0.68966214    -0.36100
N243        N  0.56391752  0.84143339  0.69702458    -0.28200
C244        C  0.55799155  0.81491822  0.69352783    -0.03500
C245        C  0.58102150  0.80173820  0.68362147     0.05100
C246        C  0.60042996  0.82194715  0.68145550     0.03200
H247        H  0.53841976  0.80593363  0.69803132     0.08300
H248        H  0.62099118  0.82006932  0.67385376     0.07200
C249        C  0.80583813  0.08262321  0.64372176     0.80300
N250        N  0.82790881  0.08117562  0.66020867    -0.78000
C251        C  0.84883121  0.09886678  0.65743621     0.82700
N252        N  0.84815481  0.11750295  0.63700546    -0.78000
C253        C  0.82603186  0.11928074  0.62036931     0.82800
N254        N  0.80474185  0.10206297  0.62413901    -0.79700
C255        C  0.86834893  0.32180985  0.11232001     0.45500
H256        H  0.88159620  0.33300863  0.09780483    -0.03500
C257        C  0.83706415  0.29575620  0.14639504     0.45600
H258        H  0.82367690  0.28495215  0.16108650    -0.03500
C259        C  0.83779793  0.32334802  0.10503017    -0.17200
C260        C  0.87443596  0.29112331  0.11397509    -0.16900
C261        C  0.87021397  0.33219444  0.14190650    -0.17300
C262        C  0.82161104  0.30894684  0.12269969    -0.17300
C263        C  0.85852777  0.27762024  0.13279650    -0.16900
C264        C  0.85326138  0.31881203  0.15957469    -0.17200
N265        N  0.94842204  0.97449179  0.21566049    -0.27200
N266        N  0.93843929  0.95069017  0.20829739    -0.35100
C267        C  0.95301640  0.93088736  0.22005802     0.01100
C268        C  0.97327963  0.94249476  0.23574584     0.07100
C269        C  0.96997651  0.97025515  0.23225180    -0.06000
H270        H  0.94824853  0.90954784  0.21834107     0.07800
H271        H  0.98115796  0.98615022  0.24251803     0.09000
Cu272      Cu  0.90245613  0.94464929  0.18736821     0.44200
Cu273      Cu  0.92919982  0.01120194  0.20615447     0.42000
Cu274      Cu  0.85829785  0.00118528  0.18613240     0.43900
N275        N  0.86184319  0.94136593  0.17706243    -0.34600
N276        N  0.84515244  0.96229611  0.17788339    -0.28900
C277        C  0.81966797  0.95374772  0.17293815    -0.05000
C278        C  0.82034088  0.92598528  0.16875267     0.07200
C279        C  0.84749470  0.91884577  0.17144134     0.01000
H280        H  0.80199602  0.96682012  0.17257462     0.08700
H281        H  0.85605782  0.89866376  0.17058808     0.07800
N282        N  0.87650474  0.03872603  0.19003179    -0.36100
N283        N  0.90232111  0.04276115  0.19649866    -0.28200
C284        C  0.90758973  0.06953942  0.19484072    -0.03500
C285        C  0.88391774  0.08296415  0.18695797     0.05100
C286        C  0.86471766  0.06259516  0.18421718     0.03200
H287        H  0.92733904  0.07843592  0.19868104     0.08300
H288        H  0.84391988  0.06464867  0.17728299     0.07200
N289        N  0.44959218  0.70097902  0.43513605    -0.27200
N290        N  0.47318637  0.70568225  0.42302538    -0.35100
C291        C  0.49339560  0.69555841  0.43842916     0.01100
C292        C  0.48224018  0.68364495  0.46141781     0.07100
C293        C  0.45432362  0.68731646  0.45858219    -0.06000
H294        H  0.51474094  0.69673026  0.43314381     0.07800
H295        H  0.43871453  0.68133059  0.47293663     0.09000
Cu296      Cu  0.47787586  0.72531841  0.38592372     0.44200
Cu297      Cu  0.41259451  0.71576530  0.41974697     0.42000
Cu298      Cu  0.41914155  0.75232569  0.35445671     0.43900
N299        N  0.47844740  0.74230599  0.34727631    -0.34600
N300        N  0.45632784  0.75140380  0.33499207    -0.28900
C301        C  0.46281988  0.75990792  0.30970619    -0.05000
C302        C  0.49049218  0.75626939  0.30619821     0.07200
C303        C  0.49977593  0.74518255  0.33040020     0.01000
H304        H  0.44862422  0.76864230  0.29527465     0.08700
H305        H  0.52045588  0.73936887  0.33526478     0.07800
N306        N  0.38427223  0.75132565  0.37788686    -0.36100
N307        N  0.38113769  0.73767735  0.40093554    -0.28200
C308        C  0.35548145  0.74156437  0.40994151    -0.03500
C309        C  0.34207163  0.75870710  0.39182161     0.05100
C310        C  0.36107379  0.76433533  0.37181092     0.03200
H311        H  0.34736956  0.73289265  0.42851673     0.08300
H312        H  0.35821677  0.77660008  0.35372315     0.07200
N313        N  0.71407929  0.47443570  0.95201085    -0.27200
N314        N  0.71701884  0.49015708  0.97363223    -0.35100
C315        C  0.73351727  0.47808962  0.99175556     0.01100
C316        C  0.74152736  0.45325232  0.98150222     0.07100
C317        C  0.72864014  0.45148176  0.95619163    -0.06000
H318        H  0.73854119  0.48651212  0.01149729     0.07800
H319        H  0.72981194  0.43481411  0.94192581     0.09000
Cu320      Cu  0.69713920  0.52649773  0.97961262     0.44200
Cu321      Cu  0.68983680  0.48660323  0.91858591     0.42000
Cu322      Cu  0.64554439  0.54601511  0.93364755     0.43900
N323        N  0.67367370  0.56067670  0.98533488    -0.34600
N324        N  0.65354051  0.56761082  0.96891553    -0.28900
C325        C  0.64286506  0.59126202  0.97748861    -0.05000
C326        C  0.65731394  0.59965147  0.00027572     0.07200
C327        C  0.67659392  0.57966877  0.00466846     0.01000
H328        H  0.62689830  0.60224853  0.96702782     0.08700
H329        H  0.69202529  0.57918924  0.02042342     0.07800
N330        N  0.64830082  0.52701443  0.89609410    -0.36100
N331        N  0.66451901  0.50645935  0.89000638    -0.28200
C332        C  0.66305709  0.50212839  0.86283823    -0.03500
C333        C  0.64510378  0.52082287  0.85132172     0.05100
C334        C  0.63621389  0.53609763  0.87325438     0.03200
H335        H  0.67486721  0.48697038  0.85220844     0.08300
H336        H  0.62308932  0.55367625  0.87264423     0.07200
C337        C  0.66183930  0.80252897  0.13801602     0.80300
N338        N  0.63977796  0.80417637  0.15457379    -0.78000
C339        C  0.61871812  0.78650907  0.15196840     0.82700
N340        N  0.61948017  0.76757302  0.13187370    -0.78000
C341        C  0.64157699  0.76550430  0.11534060     0.82800
N342        N  0.66281019  0.78282236  0.11874590    -0.79700
C343        C  0.09957966  0.82284790  0.37849589     0.45500
H344        H  0.08577453  0.83524285  0.39139031    -0.03500
C345        C  0.13201496  0.79380196  0.34824308     0.45600
H346        H  0.14589630  0.78164575  0.33521712    -0.03500
C347        C  0.12955962  0.82371025  0.38766636    -0.17200
C348        C  0.09249474  0.79253352  0.37826018    -0.16900
C349        C  0.09991100  0.83137624  0.34835480    -0.17300
C350        C  0.14641630  0.80796354  0.37201694    -0.17300
C351        C  0.10907105  0.77726446  0.36167901    -0.16900
C352        C  0.11744020  0.81651780  0.33258013    -0.17200
C353        C  0.59930492  0.69700591  0.05514437    -0.17800
C354        C  0.60151927  0.67390322  0.03873473    -0.19900
C355        C  0.62697740  0.66178845  0.03424292     0.20700
C356        C  0.65050193  0.67340903  0.04598573    -0.02900
C357        C  0.64832527  0.69694040  0.06215612    -0.05900
C358        C  0.62254498  0.70854601  0.06710632     0.21000
C359        C  0.67190655  0.70855271  0.07375308     0.19200
C360        C  0.69739855  0.69665392  0.06905425    -0.17400
C361        C  0.69950522  0.67313152  0.05336960    -0.19600
C362        C  0.67618262  0.66128661  0.04194028     0.20600
C363        C  0.67809519  0.63732774  0.02683737    -0.32600
C364        C  0.65477825  0.62544619  0.01531932     0.01300
C365        C  0.62932115  0.63802315  0.01864477    -0.24000
C366        C  0.62045157  0.73119219  0.08427983    -0.28500
C367        C  0.64386967  0.74267206  0.09606251     0.07000
C368        C  0.66955278  0.73153925  0.09029873    -0.27200
H369        H  0.57937778  0.70574113  0.05863531     0.11700
H370        H  0.58326037  0.66528260  0.02987254     0.12900
H371        H  0.71567695  0.70533574  0.07782422     0.11900
H372        H  0.71937129  0.66409365  0.05032596     0.11200
H373        H  0.69784390  0.62798353  0.02392093     0.16600
H374        H  0.61129430  0.62886976  0.00981941     0.12500
H375        H  0.60062825  0.73986179  0.08853752     0.15300
H376        H  0.68765918  0.74018671  0.09949095     0.15100
C377        C  0.51199614  0.74857177  0.20805404    -0.17800
C378        C  0.53022780  0.75250854  0.18644587    -0.19900
C379        C  0.55433551  0.76730625  0.19037607     0.20700
C380        C  0.55992730  0.77856223  0.21624049    -0.02900
C381        C  0.54181172  0.77419332  0.23812937    -0.05900
C382        C  0.51772085  0.75909586  0.23403837     0.21000
C383        C  0.54815330  0.78441646  0.26426414     0.19200
C384        C  0.57190566  0.79970171  0.26809663    -0.17400
C385        C  0.58959202  0.80442405  0.24631581    -0.19600
C386        C  0.58394880  0.79367065  0.22044390     0.20600
C387        C  0.60232808  0.79717204  0.19894111    -0.32600
C388        C  0.59749235  0.78518518  0.17336775     0.01300
C389        C  0.57324616  0.77054484  0.16912965    -0.24000
C390        C  0.50020829  0.75427368  0.25618442    -0.28500
C391        C  0.50714586  0.76351946  0.28238195     0.07000
C392        C  0.53095450  0.77868639  0.28625762    -0.27200
H393        H  0.49363434  0.73691030  0.20455205     0.11700
H394        H  0.52557410  0.74378926  0.16670697     0.12900
H395        H  0.57694296  0.80778764  0.28801726     0.11900
H396        H  0.60795993  0.81607739  0.24983070     0.11200
H397        H  0.62097481  0.80837111  0.20253178     0.16600
H398        H  0.56926948  0.76136798  0.14944056     0.12500
H399        H  0.48184215  0.74241336  0.25334297     0.15300
H400        H  0.53610088  0.78592276  0.30650454     0.15100
C401        C  0.24350603  0.82953907  0.35777820    -0.17800
C402        C  0.27095779  0.82249504  0.36058209    -0.19900
C403        C  0.27856559  0.79968410  0.37598115     0.20700
C404        C  0.25840923  0.78419982  0.38926808    -0.02900
C405        C  0.23068928  0.79114249  0.38622430    -0.05900
C406        C  0.22319707  0.81379797  0.37019212     0.21000
C407        C  0.21045333  0.77496342  0.39858453     0.19200
C408        C  0.21810268  0.75271079  0.41472291    -0.17400
C409        C  0.24559108  0.74601253  0.41797131    -0.19600
C410        C  0.26587714  0.76134127  0.40497365     0.20600
C411        C  0.29338202  0.75371718  0.40669863    -0.32600
C412        C  0.31346477  0.76837046  0.39252610     0.01300
C413        C  0.30589857  0.79168397  0.37770922    -0.24000
C414        C  0.19553386  0.81987162  0.36635205    -0.28500
C415        C  0.17547271  0.80322081  0.37786174     0.07000
C416        C  0.18294086  0.78093984  0.39401720    -0.27200
H417        H  0.23812922  0.84700794  0.34547356     0.11700
H418        H  0.28622827  0.83466943  0.35035876     0.12900
H419        H  0.20279158  0.74022694  0.42450043     0.11900
H420        H  0.25095103  0.72848088  0.43018810     0.11200
H421        H  0.29895927  0.73574129  0.41813607     0.16600
H422        H  0.32123510  0.80348872  0.36716707     0.12500
H423        H  0.18956951  0.83711663  0.35399804     0.15300
H424        H  0.16723401  0.76817010  0.40279631     0.15100
C425        C  0.75958012  0.82390606  0.12729201    -0.17800
C426        C  0.78183019  0.84099287  0.13191628    -0.19900
C427        C  0.77840271  0.86559541  0.14583327     0.20700
C428        C  0.75230921  0.87303651  0.15524378    -0.02900
C429        C  0.72991814  0.85567565  0.15081749    -0.05900
C430        C  0.73356891  0.83106030  0.13665661     0.21000
C431        C  0.70391407  0.86294775  0.16058600     0.19200
C432        C  0.70047287  0.88755974  0.17447606    -0.17400
C433        C  0.72260773  0.90489026  0.17862309    -0.19600
C434        C  0.74857124  0.89781333  0.16908782     0.20600
C435        C  0.77085334  0.91506233  0.17320587    -0.32600
C436        C  0.79693364  0.90774363  0.16400378     0.04500
C437        C  0.80057822  0.88290720  0.15045365    -0.24000
C438        C  0.71118249  0.81398723  0.13220309    -0.28500
C439        C  0.68524118  0.82097400  0.14210413     0.07000
C440        C  0.68181426  0.84548222  0.15633157    -0.27200
H441        H  0.76273231  0.80504800  0.11643752     0.11700
H442        H  0.80171832  0.83499281  0.12453960     0.12900
H443        H  0.68063477  0.89343817  0.18208851     0.11900
H444        H  0.71942558  0.92382111  0.18933966     0.11200
H445        H  0.76792608  0.93399345  0.18399137     0.16600
H446        H  0.82058413  0.87722507  0.14312941     0.12500
H447        H  0.71407326  0.79504336  0.12140362     0.15300
H448        H  0.66187810  0.85109658  0.16392414     0.15100
C449        C  0.00872350  0.84932161  0.31257910    -0.17800
C450        C  0.99128251  0.86433540  0.29585422    -0.19900
C451        C  0.00005448  0.88879466  0.28414279     0.20700
C452        C  0.02650707  0.89848535  0.28961522    -0.02900
C453        C  0.04425111  0.88315615  0.30626484    -0.05900
C454        C  0.03527388  0.85843187  0.31770450     0.21000
C455        C  0.07115845  0.89217046  0.31084499     0.19200
C456        C  0.07972645  0.91686729  0.29945233    -0.17400
C457        C  0.06194923  0.93231995  0.28333786    -0.19600
C458        C  0.03538585  0.92319203  0.27804050     0.20600
C459        C  0.01771658  0.93800056  0.26098640    -0.32600
C460        C  0.99160798  0.92798601  0.25486017     0.01300
C461        C  0.98291533  0.90349460  0.26674509    -0.24000
C462        C  0.05329690  0.84275088  0.33324056    -0.28500
C463        C  0.08035443  0.85100479  0.33679269     0.07000
C464        C  0.08918432  0.87586756  0.32596419    -0.27200
H465        H  0.00158609  0.83035127  0.32115924     0.11700
H466        H  0.97098600  0.85668992  0.29188382     0.12900
H467        H  0.10028010  0.92411537  0.30278885     0.11900
H468        H  0.06913681  0.95121186  0.27463902     0.11200
H469        H  0.02453518  0.95683288  0.25184463     0.16600
H470        H  0.96265140  0.89586241  0.26258688     0.12500
H471        H  0.04681043  0.82326275  0.34116426     0.15300
H472        H  0.11023655  0.88195449  0.32854825     0.15100
C473        C  0.82374968  0.16112876  0.16658560    -0.17800
C474        C  0.82016465  0.18813674  0.15851173    -0.19900
C475        C  0.84277192  0.20485944  0.15364238     0.20700
C476        C  0.86925520  0.19423376  0.15700258    -0.02900
C477        C  0.87287041  0.16696052  0.16510645    -0.05900
C478        C  0.85000968  0.15033419  0.16986005     0.21000
C479        C  0.89935760  0.15633631  0.16834769     0.19200
C480        C  0.92196132  0.17307061  0.16354256    -0.17400
C481        C  0.91838792  0.20009686  0.15563009    -0.19600
C482        C  0.89214951  0.21084955  0.15230109     0.20600
C483        C  0.88843679  0.23794658  0.14446481    -0.32600
C484        C  0.86213923  0.24863670  0.14071503     0.01300
C485        C  0.83939008  0.23198085  0.14548583    -0.24000
C486        C  0.85379369  0.12316133  0.17755734    -0.28500
C487        C  0.88016338  0.11221452  0.18044373     0.07000
C488        C  0.90282269  0.12911994  0.17604993    -0.27200
H489        H  0.80595844  0.14863709  0.17015519     0.11700
H490        H  0.79969209  0.19594354  0.15605635     0.12900
H491        H  0.94243797  0.16524538  0.16588580     0.11900
H492        H  0.93617768  0.21259392  0.15205736     0.11200
H493        H  0.90605800  0.25084615  0.14152636     0.16600
H494        H  0.81906925  0.24005076  0.14262177     0.12500
H495        H  0.83610084  0.11058484  0.18119755     0.15300
H496        H  0.92322014  0.12103577  0.17801198     0.15100
C497        C  0.81118214  0.43364231  0.05140202    -0.17800
C498        C  0.82478526  0.41544734  0.06856065    -0.19900
C499        C  0.82009658  0.38748065  0.06641508     0.20700
C500        C  0.80192710  0.37769291  0.04636495    -0.02900
C501        C  0.78831437  0.39610046  0.02885948    -0.05900
C502        C  0.79272017  0.42419637  0.03170931     0.21000
C503        C  0.76984572  0.38645863  0.00899521     0.19200
C504        C  0.76551577  0.35840255  0.00663162    -0.17400
C505        C  0.77884433  0.34016947  0.02411846    -0.19600
C506        C  0.79688550  0.34960623  0.04423705     0.20600
C507        C  0.80946065  0.33160289  0.06268206    -0.32600
C508        C  0.82692919  0.34139978  0.08322465     0.01300
C509        C  0.83265741  0.36924633  0.08448683    -0.24000
C510        C  0.77808771  0.44244548  0.01535201    -0.28500
C511        C  0.75898882  0.43318888  0.99603887     0.07000
C512        C  0.75548997  0.40507226  0.99247278    -0.27200
H513        H  0.81483748  0.45517090  0.05378831     0.11700
H514        H  0.83866200  0.42329684  0.08382395     0.12900
H515        H  0.75145286  0.35056655  0.99153932     0.11900
H516        H  0.77475433  0.31867794  0.02213627     0.11200
H517        H  0.80539109  0.31007164  0.06131153     0.16600
H518        H  0.84602500  0.37683249  0.10036249     0.12500
H519        H  0.78131238  0.46401632  0.01798793     0.15300
H520        H  0.74077099  0.39773179  0.97775130     0.15100
C521        C  0.76973146  0.99609523  0.67846585    -0.17800
C522        C  0.74798685  0.97838333  0.68295842    -0.19900
C523        C  0.72145109  0.98586491  0.67552084     0.20700
C524        C  0.71671085  0.01154338  0.66366103    -0.02900
C525        C  0.73869142  0.02925545  0.65878553    -0.05900
C526        C  0.76529928  0.02145242  0.66624496     0.21000
C527        C  0.73405778  0.05468107  0.64634081     0.19200
C528        C  0.70743509  0.06239430  0.63944900    -0.17400
C529        C  0.68557996  0.04496978  0.64461695    -0.19600
C530        C  0.69003786  0.01947706  0.65655788     0.20600
C531        C  0.66831553  0.00173618  0.66143621    -0.32600
C532        C  0.67297451  0.97599605  0.67284517     0.01300
C533        C  0.69957402  0.96813663  0.67974930    -0.24000
C534        C  0.78704126  0.03908133  0.66124903    -0.28500
C535        C  0.78266061  0.06423320  0.64845924     0.07000
C536        C  0.75612777  0.07190853  0.64100307    -0.27200
H537        H  0.79006072  0.98986821  0.68434989     0.11700
H538        H  0.75192874  0.95881284  0.69222072     0.12900
H539        H  0.70351897  0.08189226  0.63002070     0.11900
H540        H  0.66520272  0.05135378  0.63909168     0.11200
H541        H  0.64781623  0.00779241  0.65595308     0.16600
H542        H  0.70317237  0.94844354  0.68890731     0.12500
H543        H  0.80748077  0.03304966  0.66700965     0.15300
H544        H  0.75260604  0.09144489  0.63146607     0.15100
C545        C  0.77005334  0.18479700  0.56918165    -0.17800
C546        C  0.76787749  0.20771742  0.55254845    -0.19900
C547        C  0.79129744  0.22003127  0.54184704     0.20700
C548        C  0.81715918  0.20894282  0.54754088    -0.02900
C549        C  0.81937915  0.18604602  0.56465790    -0.05900
C550        C  0.79569651  0.17399155  0.57555385     0.21000
C551        C  0.84528578  0.17554907  0.57126932     0.19200
C552        C  0.86865793  0.18753996  0.56005117    -0.17400
C553        C  0.86643237  0.21001959  0.54273771    -0.19600
C554        C  0.84081452  0.22104025  0.53657627     0.20600
C555        C  0.83843398  0.24429869  0.52019972    -0.32600
C556        C  0.81278821  0.25595897  0.51539975     0.01300
C557        C  0.78932390  0.24355474  0.52599898    -0.24000
C558        C  0.79807227  0.15166292  0.59305257    -0.28500
C559        C  0.82383293  0.14159207  0.60038227     0.07000
C560        C  0.84735696  0.15352810  0.58930009    -0.27200
H561        H  0.75169415  0.17575075  0.57738741     0.11700
H562        H  0.74788205  0.21595864  0.54824506     0.12900
H563        H  0.88868778  0.17965139  0.56483149     0.11900
H564        H  0.88478543  0.21904426  0.53450194     0.11200
H565        H  0.85655223  0.25392926  0.51210245     0.16600
H566        H  0.76947524  0.25229892  0.52196903     0.12500
H567        H  0.77985383  0.14267729  0.60166822     0.15300
H568        H  0.86725546  0.14568951  0.59474021     0.15100
C569        C  0.79890568  0.36083598  0.23251304    -0.17800
C570        C  0.79576906  0.36897928  0.25966663    -0.19900
C571        C  0.81637027  0.36394400  0.27887938     0.20700
C572        C  0.84068834  0.35119753  0.27047753    -0.02900
C573        C  0.84398764  0.34324839  0.24299850    -0.05900
C574        C  0.82278000  0.34770161  0.22405873     0.21000
C575        C  0.86830849  0.33047434  0.23458703     0.19200
C576        C  0.88917916  0.32605979  0.25364760    -0.17400
C577        C  0.88572348  0.33353646  0.28097076    -0.19600
C578        C  0.86145260  0.34582718  0.28964114     0.20600
C579        C  0.85729354  0.35219405  0.31723290    -0.32600
C580        C  0.83279291  0.36417783  0.32590213     0.01300
C581        C  0.81273331  0.37067057  0.30647187    -0.24000
C582        C  0.82579475  0.33885804  0.19704494    -0.28500
C583        C  0.84992757  0.32621910  0.18861884     0.07000
C584        C  0.87120644  0.32221260  0.20733101    -0.27200
H585        H  0.78254027  0.36459963  0.21816270     0.11700
H586        H  0.77700765  0.37879770  0.26574755     0.12900
H587        H  0.90802439  0.31643748  0.24750896     0.11900
H588        H  0.90194027  0.32943449  0.29539643     0.11200
H589        H  0.87298375  0.34745466  0.33205440     0.16600
H590        H  0.79374184  0.37975340  0.31298624     0.12500
H591        H  0.80962608  0.34226157  0.18236602     0.15300
H592        H  0.88990525  0.31266230  0.20059835     0.15100
C593        C  0.87016563  0.09369666  0.75511953    -0.17800
C594        C  0.88759824  0.09876259  0.77703041    -0.19900
C595        C  0.91386679  0.10890270  0.77243347     0.20700
C596        C  0.92283795  0.11366995  0.74549535    -0.02900
C597        C  0.90511955  0.10886891  0.72338262    -0.05900
C598        C  0.87868119  0.09888009  0.72830893     0.21000
C599        C  0.91364639  0.11455695  0.69644930     0.19200
C600        C  0.94013867  0.12418347  0.69186906    -0.17400
C601        C  0.95786267  0.12859937  0.71380347    -0.19600
C602        C  0.94930205  0.12369266  0.74069495     0.20600
C603        C  0.96648806  0.12917551  0.76290263    -0.32600
C604        C  0.95733765  0.12522079  0.78982693     0.01300
C605        C  0.93112590  0.11476661  0.79436310    -0.24000
C606        C  0.86096220  0.09476751  0.70641329    -0.28500
C607        C  0.86893891  0.10118322  0.67963483     0.07000
C608        C  0.89534746  0.11096426  0.67470771    -0.27200
H609        H  0.84988492  0.08604599  0.75916810     0.11700
H610        H  0.88046038  0.09494215  0.79759476     0.12900
H611        H  0.94707548  0.12852429  0.67134062     0.11900
H612        H  0.97813740  0.13625597  0.70976156     0.11200
H613        H  0.98661811  0.13735899  0.75921209     0.16600
H614        H  0.92406491  0.11122241  0.81500142     0.12500
H615        H  0.84051140  0.08749939  0.71039419     0.15300
H616        H  0.90155263  0.11583260  0.65404653     0.15100
C617        C  0.88759141  0.21738661  0.04724871    -0.17800
C618        C  0.90331312  0.20413242  0.02760901    -0.19900
C619        C  0.92945067  0.21361422  0.02110058     0.20700
C620        C  0.94003872  0.23644895  0.03478153    -0.02900
C621        C  0.92408267  0.24993400  0.05455000    -0.05900
C622        C  0.89771909  0.24037665  0.06066967     0.21000
C623        C  0.93433456  0.27315767  0.06787993     0.19200
C624        C  0.96062097  0.28241314  0.06154623    -0.17400
C625        C  0.97651454  0.26893622  0.04207120    -0.19600
C626        C  0.96638771  0.24600787  0.02846001     0.20600
C627        C  0.98188675  0.23276269  0.00832241    -0.32600
C628        C  0.97109662  0.21044750  0.99407369     0.01300
C629        C  0.94496978  0.20088403  0.00084276    -0.24000
C630        C  0.88182312  0.25406544  0.07993706    -0.28500
C631        C  0.89192559  0.27704360  0.09358591     0.07000
C632        C  0.91807835  0.28671073  0.08718422    -0.27200
H633        H  0.86741063  0.20976155  0.05180663     0.11700
H634        H  0.89493247  0.18656860  0.01734403     0.12900
H635        H  0.96887339  0.30015396  0.07160253     0.11900
H636        H  0.99667055  0.27659848  0.03748842     0.11200
H637        H  0.00192692  0.24035529  0.00312450     0.16600
H638        H  0.93661892  0.18349019  0.99025886     0.12500
H639        H  0.86135991  0.24697921  0.08415480     0.15300
H640        H  0.92583992  0.30457567  0.09734859     0.15100
C641        C  0.20800796  0.12141567  0.82796831    -0.17800
C642        C  0.23489130  0.11249876  0.82535274    -0.19900
C643        C  0.25087796  0.10771103  0.84859912     0.20700
C644        C  0.23965158  0.11191230  0.87474464    -0.02900
C645        C  0.21240883  0.12072343  0.87739796    -0.05900
C646        C  0.19658594  0.12552614  0.85387797     0.21000
C647        C  0.20106460  0.12480322  0.90353318     0.19200
C648        C  0.21712490  0.12002685  0.92676474    -0.17400
C649        C  0.24422113  0.11158300  0.92412525    -0.19600
C650        C  0.25568558  0.10753014  0.89820955     0.20600
C651        C  0.28295436  0.09947593  0.89533487    -0.32600
C652        C  0.29424427  0.09476741  0.86930786     0.01300
C653        C  0.27791772  0.09895186  0.84608254    -0.24000
C654        C  0.16959249  0.13428269  0.85660653    -0.28500
C655        C  0.15789092  0.13816397  0.88255277     0.07000
C656        C  0.17389192  0.13350551  0.90595457    -0.27200
H657        H  0.19610525  0.12501841  0.80969206     0.11700
H658        H  0.24321181  0.10943136  0.80512778     0.12900
H659        H  0.20877625  0.12297331  0.94699787     0.11900
H660        H  0.25622330  0.10821975  0.94237766     0.11200
H661        H  0.29549009  0.09734569  0.91339961     0.16600
H662        H  0.28614727  0.09547677  0.82593766     0.12500
H663        H  0.15778020  0.13814097  0.83835296     0.15300
H664        H  0.16516249  0.13625474  0.92604522     0.15100
C665        C  0.40611570  0.95729775  0.78560445    -0.17800
C666        C  0.38799128  0.97408001  0.79976969    -0.19900
C667        C  0.39766562  0.99614972  0.81501373     0.20700
C668        C  0.42594900  0.00096543  0.81655042    -0.02900
C669        C  0.44419411  0.98424149  0.80200756    -0.05900
C670        C  0.43422656  0.96241569  0.78624865     0.21000
C671        C  0.47231740  0.98995474  0.80250325     0.19200
C672        C  0.48209420  0.01159840  0.81827363    -0.17400
C673        C  0.46406046  0.02802491  0.83282822    -0.19600
C674        C  0.43595433  0.02314965  0.83173787     0.20600
C675        C  0.41763078  0.04087223  0.84441380    -0.32600
C676        C  0.38949631  0.03714326  0.84154180     0.01300
C677        C  0.37957489  0.01423415  0.82767897    -0.24000
C678        C  0.45244523  0.94674191  0.77070645    -0.28500
C679        C  0.48030948  0.95319019  0.77019805     0.07000
C680        C  0.49010535  0.97448319  0.78655590    -0.27200
H681        H  0.39808081  0.94066918  0.77363810     0.11700
H682        H  0.36634260  0.97010193  0.79837031     0.12900
H683        H  0.50366573  0.01614336  0.81893799     0.11900
H684        H  0.47204541  0.04495831  0.84440097     0.11200
H685        H  0.42519978  0.05864822  0.85488639     0.16600
H686        H  0.35779271  0.01137296  0.82555452     0.12500
H687        H  0.44481796  0.93042477  0.75803669     0.15300
H688        H  0.51163807  0.97929409  0.78656471     0.15100
C689        C  0.03176410  0.57219977  0.74198604    -0.17800
C690        C  0.04881173  0.56886380  0.76465302    -0.19900
C691        C  0.05921562  0.59152681  0.77846833     0.20700
C692        C  0.05222843  0.61781615  0.76945509    -0.02900
C693        C  0.03550864  0.62117900  0.74628722    -0.05900
C694        C  0.02512840  0.59825273  0.73253612     0.21000
C695        C  0.02950503  0.64749235  0.73667683     0.19200
C696        C  0.03960389  0.67016528  0.75063778    -0.17400
C697        C  0.05574667  0.66683724  0.77387472    -0.19600
C698        C  0.06230594  0.64078316  0.78330908     0.20600
C699        C  0.07926961  0.63734262  0.80599871    -0.32600
C700        C  0.08704737  0.61126829  0.81458540     0.01300
C701        C  0.07684539  0.58842073  0.80082282    -0.24000
C702        C  0.00868485  0.60183748  0.70935112    -0.28500
C703        C  0.00336439  0.62799834  0.69933122     0.07000
C704        C  0.01376541  0.65068974  0.71309077    -0.27200
H705        H  0.02403661  0.55439057  0.73164091     0.11700
H706        H  0.05392905  0.54854489  0.77133071     0.12900
H707        H  0.03508523  0.69048528  0.74352916     0.11900
H708        H  0.06340007  0.68465285  0.78426963     0.11200
H709        H  0.08733682  0.65505802  0.81628157     0.16600
H710        H  0.08277974  0.56827887  0.80741690     0.12500
H711        H  0.00079575  0.58433544  0.69857733     0.15300
H712        H  0.00942898  0.67088931  0.70548782     0.15100
C713        C  0.00218928  0.78138064  0.42203585    -0.17800
C714        C  0.98571943  0.76924731  0.44195872    -0.19900
C715        C  0.99692216  0.75115899  0.46107169     0.20700
C716        C  0.02504446  0.74527920  0.46004426    -0.02900
C717        C  0.04156294  0.75721463  0.43976618    -0.05900
C718        C  0.03011545  0.77546360  0.42071062     0.21000
C719        C  0.06956317  0.75089505  0.43861871     0.19200
C720        C  0.08089868  0.73308284  0.45782390    -0.17400
C721        C  0.06461837  0.72152123  0.47806781    -0.19600
C722        C  0.03672348  0.72746212  0.47929803     0.20600
C723        C  0.02037207  0.71590030  0.49953687    -0.32600
C724        C  0.99235307  0.72155868  0.50079019     0.01300
C725        C  0.98063640  0.73897897  0.48130065    -0.24000
C726        C  0.04682458  0.78733571  0.40069319    -0.28500
C727        C  0.07451944  0.78050293  0.39920996     0.07000
C728        C  0.08577548  0.76248076  0.41829078    -0.27200
H729        H  0.99305022  0.79531007  0.40757617     0.11700
H730        H  0.96421555  0.77408582  0.44246999     0.12900
H731        H  0.10237547  0.72811601  0.45720409     0.11900
H732        H  0.07384013  0.70786282  0.49273976     0.11200
H733        H  0.02950202  0.70216571  0.51419806     0.16600
H734        H  0.95907105  0.74350894  0.48228561     0.12500
H735        H  0.03829460  0.80146169  0.38605658     0.15300
H736        H  0.10731035  0.75769148  0.41736509     0.15100
C737        C  0.24673504  0.56904017  0.84999493    -0.17800
C738        C  0.26856138  0.55212539  0.84342340    -0.19900
C739        C  0.26386223  0.52619235  0.83271148     0.20700
C740        C  0.23691115  0.51716576  0.82855880    -0.02900
C741        C  0.21487326  0.53440713  0.83481073    -0.05900
C742        C  0.21987054  0.56038994  0.84571063     0.21000
C743        C  0.18790293  0.52573315  0.82999732     0.19200
C744        C  0.18323638  0.49971052  0.81941999    -0.17400
C745        C  0.20508866  0.48242865  0.81364864    -0.19600
C746        C  0.23199213  0.49098269  0.81807968     0.20600
C747        C  0.25407179  0.47391671  0.81211181    -0.32600
C748        C  0.28096338  0.48297594  0.81588538     0.01300
C749        C  0.28566748  0.50915513  0.82609231    -0.24000
C750        C  0.19795719  0.57743027  0.85185663    -0.28500
C751        C  0.17105625  0.56920564  0.84661794     0.07000
C752        C  0.16614905  0.54332291  0.83565979    -0.27200
H753        H  0.25087517  0.58897589  0.85827612     0.11700
H754        H  0.28913636  0.55931474  0.84676939     0.12900
H755        H  0.16267413  0.49270555  0.81563550     0.11900
H756        H  0.20094888  0.46241843  0.80555991     0.11200
H757        H  0.25035449  0.45380907  0.80403817     0.16600
H758        H  0.30634161  0.51612694  0.82933931     0.12500
H759        H  0.20193151  0.59747338  0.85999342     0.15300
H760        H  0.14543140  0.53687444  0.83164973     0.15100
C761        C  0.32468854  0.23257314  0.83558888    -0.17800
C762        C  0.32222157  0.20488730  0.84103447    -0.19900
C763        C  0.34550828  0.18876710  0.84424840     0.20700
C764        C  0.37156856  0.20066295  0.84223837    -0.02900
C765        C  0.37405859  0.22864614  0.83680519    -0.05900
C766        C  0.35048159  0.24457512  0.83332357     0.21000
C767        C  0.40007730  0.24058017  0.83446063     0.19200
C768        C  0.42336422  0.22445982  0.83805895    -0.17400
C769        C  0.42089662  0.19666965  0.84339623    -0.19600
C770        C  0.39510260  0.18455529  0.84531480     0.20600
C771        C  0.39237964  0.15661233  0.84999431    -0.32600
C772        C  0.36642973  0.14470882  0.85217692     0.01300
C773        C  0.34314030  0.16094461  0.84932740    -0.24000
C774        C  0.35302597  0.27214694  0.82715939    -0.28500
C775        C  0.37882310  0.28417200  0.82417299     0.07000
C776        C  0.40230226  0.26829012  0.82813562    -0.27200
H777        H  0.30639953  0.24457877  0.83297107     0.11700
H778        H  0.30208640  0.19604125  0.84255626     0.12900
H779        H  0.44349647  0.23328611  0.83644741     0.11900
H780        H  0.43917237  0.18461129  0.84585173     0.11200
H781        H  0.41041635  0.14407792  0.85157101     0.16600
H782        H  0.32309991  0.15194690  0.85129796     0.12500
H783        H  0.33475663  0.28399206  0.82390928     0.15300
H784        H  0.42227048  0.27740239  0.82616875     0.15100
C785        C  0.20047225  0.70961208  0.94046683    -0.17800
C786        C  0.19557782  0.68695094  0.92409992    -0.19900
C787        C  0.16897315  0.68040527  0.91602495     0.20700
C788        C  0.14702352  0.69669404  0.92469092    -0.02900
C789        C  0.15191386  0.71930771  0.94159829    -0.05900
C790        C  0.17881087  0.72592822  0.94925096     0.21000
C791        C  0.12994253  0.73538839  0.95066169     0.19200
C792        C  0.10335016  0.72888423  0.94246866    -0.17400
C793        C  0.09855329  0.70672323  0.92532043    -0.19600
C794        C  0.12023460  0.69050271  0.91633290     0.20600
C795        C  0.11563778  0.66826887  0.89908320    -0.32600
C796        C  0.13742760  0.65185050  0.89051080     0.01300
C797        C  0.16399977  0.65797418  0.89926133    -0.24000
C798        C  0.18360155  0.74887225  0.96536153    -0.28500
C799        C  0.16183150  0.76489262  0.97450716     0.07000
C800        C  0.13502259  0.75785227  0.96746706    -0.27200
H801        H  0.22121839  0.71439341  0.94624104     0.11700
H802        H  0.21264114  0.67465327  0.91757560     0.12900
H803        H  0.08626935  0.74106570  0.94915977     0.11900
H804        H  0.07786253  0.70223808  0.91912499     0.11200
H805        H  0.09508566  0.66361323  0.89251643     0.16600
H806        H  0.18095903  0.64560725  0.89255996     0.12500
H807        H  0.20427149  0.75417501  0.97100528     0.15300
H808        H  0.11824221  0.77034931  0.97437619     0.15100
C809        C  0.09250096  0.83649703  0.21000823    -0.17800
C810        C  0.08700287  0.82880682  0.23695724    -0.19900
C811        C  0.10764911  0.82937470  0.25675352     0.20700
C812        C  0.13405715  0.83800197  0.24936521    -0.02900
C813        C  0.13950537  0.84612533  0.22226481    -0.05900
C814        C  0.11867765  0.84513420  0.20245164     0.21000
C815        C  0.16582555  0.85508179  0.21498439     0.19200
C816        C  0.18647153  0.85563378  0.23478678    -0.17400
C817        C  0.18114896  0.84733165  0.26156471    -0.19600
C818        C  0.15504376  0.83850255  0.26904506     0.20600
C819        C  0.14948133  0.83045589  0.29591720    -0.32600
C820        C  0.12315249  0.82246421  0.30350498     0.01300
C821        C  0.10235963  0.82165765  0.28382519    -0.24000
C822        C  0.12447360  0.85254388  0.17540017    -0.28500
C823        C  0.15068859  0.86138967  0.16796858     0.07000
C824        C  0.17114642  0.86296889  0.18796914    -0.27200
H825        H  0.07625973  0.83569273  0.19506039     0.11700
H826        H  0.06661301  0.82232655  0.24229910     0.12900
H827        H  0.20679499  0.86237609  0.22953086     0.11900
H828        H  0.19744967  0.84789890  0.27646608     0.11200
H829        H  0.16544125  0.83111797  0.31116363     0.16600
H830        H  0.08210325  0.81517937  0.28966399     0.12500
H831        H  0.10857252  0.85143138  0.16009368     0.15300
H832        H  0.19146164  0.86943820  0.18232212     0.15100
C833        C  0.25472844  0.98535056  0.92075990    -0.17800
C834        C  0.26779095  0.00348481  0.90326649    -0.19900
C835        C  0.28979117  0.01901389  0.91259135     0.20700
C836        C  0.29850216  0.01670257  0.93992920    -0.02900
C837        C  0.28521240  0.99838986  0.95767802    -0.05900
C838        C  0.26346488  0.98246936  0.94784982     0.21000
C839        C  0.29395729  0.99562307  0.98501216     0.19200
C840        C  0.31582569  0.01151649  0.99431236    -0.17400
C841        C  0.32907857  0.02966623  0.97665181    -0.19600
C842        C  0.32069546  0.03233136  0.94935120     0.20600
C843        C  0.33401061  0.05021504  0.93124495    -0.32600
C844        C  0.32508034  0.05266361  0.90406104     0.01300
C845        C  0.30327255  0.03667615  0.89489816    -0.24000
C846        C  0.25122015  0.96338773  0.96500181    -0.28500
C847        C  0.26017267  0.95986638  0.99199379     0.07000
C848        C  0.28110973  0.97651884  0.00219904    -0.27200
H849        H  0.23798171  0.97331038  0.91299192     0.11700
H850        H  0.26082888  0.00519368  0.88234517     0.12900
H851        H  0.32287694  0.00970768  0.01518607     0.11900
H852        H  0.34599903  0.04151449  0.98432019     0.11200
H853        H  0.35095173  0.06243108  0.93829190     0.16600
H854        H  0.29679365  0.03799623  0.87377408     0.12500
H855        H  0.23484990  0.95085890  0.95716181     0.15300
H856        H  0.28812160  0.97377469  0.02299546     0.15100
C857        C  0.76979660  0.55377423  0.61198889    -0.17800
C858        C  0.74230468  0.54797517  0.61681324    -0.19900
C859        C  0.72225425  0.56764637  0.61187612     0.20700
C860        C  0.72997697  0.59325055  0.60144022    -0.02900
C861        C  0.75764311  0.59894406  0.59618803    -0.05900
C862        C  0.77768268  0.57925315  0.60188644     0.21000
C863        C  0.76526750  0.62450740  0.58565685     0.19200
C864        C  0.74520982  0.64405785  0.58034436    -0.17400
C865        C  0.71784788  0.63852718  0.58579916    -0.19600
C866        C  0.71008482  0.61329717  0.59648640     0.20600
C867        C  0.68276973  0.60778471  0.60231267    -0.32600
C868        C  0.67500612  0.58244166  0.61264779     0.01300
C869        C  0.69466376  0.56231617  0.61728296    -0.24000
C870        C  0.80525591  0.58559750  0.59786756    -0.28500
C871        C  0.81300462  0.61121098  0.58782309     0.07000
C872        C  0.79285146  0.63032812  0.58121599    -0.27200
H873        H  0.78492362  0.53837994  0.61634380     0.11700
H874        H  0.73675757  0.52820834  0.62471459     0.12900
H875        H  0.75072481  0.66376691  0.57227158     0.11900
H876        H  0.70275320  0.65404943  0.58178659     0.11200
H877        H  0.66734895  0.62296756  0.59818556     0.16600
H878        H  0.68842697  0.54269284  0.62507078     0.12500
H879        H  0.82071501  0.57067724  0.60274166     0.15300
H880        H  0.79868170  0.65016935  0.57370058     0.15100
C881        C  0.66698287  0.50916080  0.75319655    -0.17800
C882        C  0.66307581  0.51625483  0.72581174    -0.19900
C883        C  0.64260985  0.53468433  0.71837983     0.20700
C884        C  0.62561939  0.54581019  0.73869685    -0.02900
C885        C  0.62960806  0.53865503  0.76637239    -0.05900
C886        C  0.65051018  0.52038171  0.77366273     0.21000
C887        C  0.61292271  0.55003667  0.78674051     0.19200
C888        C  0.59210471  0.56811263  0.77923482    -0.17400
C889        C  0.58808629  0.57514571  0.75181754    -0.19600
C890        C  0.60483568  0.56427045  0.73139639     0.20600
C891        C  0.60131645  0.57157195  0.70385672    -0.32600
C892        C  0.61841712  0.56070086  0.68373496     0.01300
C893        C  0.63892128  0.54228323  0.69102756    -0.24000
C894        C  0.65494484  0.51402060  0.80128851    -0.28500
C895        C  0.63891061  0.52582208  0.82189793     0.07000
C896        C  0.61760466  0.54349425  0.81427269    -0.27200
H897        H  0.68308826  0.49506310  0.75839836     0.11700
H898        H  0.67621097  0.50745615  0.71044206     0.12900
H899        H  0.57904577  0.57699961  0.79461622     0.11900
H900        H  0.57199437  0.58925658  0.74660906     0.11200
H901        H  0.58538166  0.58564112  0.69801121     0.16600
H902        H  0.65190055  0.53382795  0.67529926     0.12500
H903        H  0.67140493  0.50043671  0.80667722     0.15300
H904        H  0.60471499  0.55245596  0.82971931     0.15100
C905        C  0.64144449  0.72516411  0.66003305    -0.17800
C906        C  0.64535047  0.69836922  0.65165527    -0.19900
C907        C  0.62295582  0.68129151  0.64722563     0.20700
C908        C  0.59634131  0.69132748  0.65124704    -0.02900
C909        C  0.59239849  0.71839236  0.65976142    -0.05900
C910        C  0.61507520  0.73534051  0.66411333     0.21000
C911        C  0.56581684  0.72846502  0.66391869     0.19200
C912        C  0.54343242  0.71130267  0.65954817    -0.17400
C913        C  0.54733530  0.68446238  0.65112870    -0.19600
C914        C  0.57369033  0.67430153  0.64690706     0.20600
C915        C  0.57781705  0.64738214  0.63865251    -0.32600
C916        C  0.60429798  0.63727162  0.63452550     0.01300
C917        C  0.62673945  0.65433617  0.63900372    -0.24000
C918        C  0.61106400  0.76222233  0.67234385    -0.28500
C919        C  0.58465418  0.77271052  0.67617045     0.07000
C920        C  0.56210651  0.75553492  0.67215540    -0.27200
H921        H  0.65907773  0.73795889  0.66329078     0.11700
H922        H  0.66590661  0.69099280  0.64865724     0.12900
H923        H  0.52288020  0.71864912  0.66261296     0.11900
H924        H  0.52971703  0.67163983  0.64790864     0.11200
H925        H  0.56043631  0.63411898  0.63592116     0.16600
H926        H  0.64717822  0.64668387  0.63605235     0.12500
H927        H  0.62871055  0.77489571  0.67579957     0.15300
H928        H  0.54167422  0.76328999  0.67493777     0.15100
C929        C  0.49171570  0.61364214  0.53390196    -0.17800
C930        C  0.50733455  0.60085450  0.55414791    -0.19900
C931        C  0.53346532  0.61043183  0.56067858     0.20700
C932        C  0.54391661  0.63315425  0.54657410    -0.02900
C933        C  0.52826691  0.64589468  0.52598095    -0.05900
C934        C  0.50197699  0.63616600  0.51965474     0.21000
C935        C  0.53903938  0.66826048  0.51161312     0.19200
C936        C  0.56509825  0.67794462  0.51814349    -0.17400
C937        C  0.58048786  0.66546985  0.53861842    -0.19600
C938        C  0.57012261  0.64304289  0.55285933     0.20600
C939        C  0.58562150  0.63026440  0.57314132    -0.32600
C940        C  0.57533507  0.60779220  0.58753965     0.01300
C941        C  0.54935476  0.59773892  0.58097334    -0.24000
C942        C  0.48660665  0.64895881  0.49902833    -0.28500
C943        C  0.49751409  0.67091867  0.48425684     0.07000
C944        C  0.52370791  0.68044771  0.49080373    -0.27200
H945        H  0.47162508  0.60581770  0.52929793     0.11700
H946        H  0.49894354  0.58346219  0.56473170     0.12900
H947        H  0.57362907  0.69513647  0.50733959     0.11900
H948        H  0.60057579  0.67330365  0.54324235     0.11200
H949        H  0.60596810  0.63760034  0.57750844     0.16600
H950        H  0.54146576  0.58026561  0.59182666     0.12500
H951        H  0.46651000  0.64140094  0.49397898     0.15300
H952        H  0.53215294  0.69755101  0.47977968     0.15100
C953        C  0.69364050  0.54442106  0.52446091    -0.17800
C954        C  0.70814388  0.52583953  0.50853899    -0.19900
C955        C  0.70222136  0.49803124  0.50996116     0.20700
C956        C  0.68108025  0.48893769  0.52722319    -0.02900
C957        C  0.66641245  0.50768480  0.54323571    -0.05900
C958        C  0.67295419  0.53551465  0.54206736     0.21000
C959        C  0.64577256  0.49846937  0.56101878     0.19200
C960        C  0.63942763  0.47075735  0.56203236    -0.17400
C961        C  0.65398060  0.45218494  0.54620748    -0.19600
C962        C  0.67510211  0.46102861  0.52910127     0.20600
C963        C  0.69082005  0.44237602  0.51443124    -0.32600
C964        C  0.71234167  0.45118591  0.49771515     0.01300
C965        C  0.71753439  0.47908959  0.49505327    -0.24000
C966        C  0.65939102  0.55377864  0.55925094    -0.28500
C967        C  0.64009332  0.54442493  0.57824800     0.07000
C968        C  0.63266563  0.51694466  0.57830939    -0.27200
H969        H  0.69894693  0.56571657  0.52337866     0.11700
H970        H  0.72430007  0.53318202  0.49542853     0.12900
H971        H  0.62359204  0.46337088  0.57550976     0.11900
H972        H  0.64905793  0.43082561  0.54774553     0.11200
H973        H  0.68649226  0.42090300  0.51627400     0.16600
H974        H  0.73418516  0.48596337  0.48229822     0.12500
H975        H  0.66452119  0.57511365  0.55850276     0.15300
H976        H  0.61774108  0.50970318  0.59289990     0.15100
C977        C  0.55007551  0.45305534  0.69586863    -0.17800
C978        C  0.56953830  0.46779190  0.68105946    -0.19900
C979        C  0.56343416  0.49375895  0.67096093     0.20700
C980        C  0.53729860  0.50477686  0.67548644    -0.02900
C981        C  0.51782606  0.49005304  0.69062841    -0.05900
C982        C  0.52421949  0.46410127  0.70102167     0.21000
C983        C  0.49208470  0.50156376  0.69572528     0.19200
C984        C  0.48579584  0.52736639  0.68545119    -0.17400
C985        C  0.50499605  0.54189086  0.67041984    -0.19600
C986        C  0.53078105  0.53084334  0.66545125     0.20600
C987        C  0.55040531  0.54580637  0.65133770    -0.32600
C988        C  0.57661879  0.53539988  0.64762692     0.01300
C989        C  0.58311464  0.50930317  0.65714783    -0.24000
C990        C  0.50481170  0.44999107  0.71676846    -0.28500
C991        C  0.47926075  0.46172926  0.72238133     0.07000
C992        C  0.47307806  0.48733754  0.71132991    -0.27200
H993        H  0.55538683  0.43316798  0.70362546     0.11700
H994        H  0.58946811  0.45899271  0.67775434     0.12900
H995        H  0.46607105  0.53642995  0.68924670     0.11900
H996        H  0.49977395  0.56190473  0.66292006     0.11200
H997        H  0.54576882  0.56618940  0.64440045     0.16600
H998        H  0.60360278  0.50157904  0.65451854     0.12500
H999        H  0.50984240  0.43027841  0.72513683     0.15300
H1000       H  0.45335555  0.49645550  0.71478084     0.15100
C1001       C  0.27389367  0.38723055  0.32284400    -0.17800
C1002       C  0.25205726  0.40504897  0.31893424    -0.19900
C1003       C  0.22540882  0.39703976  0.32541239     0.20700
C1004       C  0.22072594  0.37082752  0.33599948    -0.02900
C1005       C  0.24280132  0.35299883  0.34032487    -0.05900
C1006       C  0.26949580  0.36118553  0.33354907     0.21000
C1007       C  0.23812880  0.32697223  0.35135856     0.19200
C1008       C  0.21147016  0.31885316  0.35759432    -0.17400
C1009       C  0.18956862  0.33636624  0.35294348    -0.19600
C1010       C  0.19398271  0.36237983  0.34220132     0.20600
C1011       C  0.17211457  0.38004702  0.33749512    -0.32600
C1012       C  0.17661499  0.40624299  0.32710013     0.01300
C1013       C  0.20335107  0.41468360  0.32131616    -0.24000
C1014       C  0.29127774  0.34317388  0.33756964    -0.28500
C1015       C  0.28677885  0.31732862  0.34886655     0.07000
C1016       C  0.26015851  0.30946241  0.35585054    -0.27200
H1017       H  0.29425002  0.39385754  0.31756186     0.11700
H1018       H  0.25600354  0.42506916  0.31071509     0.12900
H1019       H  0.20754209  0.29890023  0.36598979     0.11900
H1020       H  0.16916378  0.32958199  0.35782273     0.11200
H1021       H  0.15158776  0.37349668  0.34221431     0.16600
H1022       H  0.20694041  0.43474209  0.31301445     0.12500
H1023       H  0.31176815  0.34936133  0.33221203     0.15300
H1024       H  0.25649527  0.28944767  0.36425695     0.15100
C1025       C  0.04899941  0.69908808  0.34167654    -0.17800
C1026       C  0.04546844  0.67169212  0.33509433    -0.19900
C1027       C  0.06803392  0.65436660  0.33289978     0.20700
C1028       C  0.09438804  0.66475512  0.33774806    -0.02900
C1029       C  0.09795979  0.69239664  0.34440427    -0.05900
C1030       C  0.07515525  0.70964938  0.34621849     0.21000
C1031       C  0.12437426  0.70281360  0.34890211     0.19200
C1032       C  0.14690875  0.68546523  0.34701425    -0.17400
C1033       C  0.14336832  0.65810660  0.34045506    -0.19600
C1034       C  0.11722866  0.64761010  0.33567587     0.20600
C1035       C  0.11363116  0.62031192  0.32864427    -0.32600
C1036       C  0.08748252  0.60967574  0.32356132     0.01300
C1037       C  0.06474630  0.62692188  0.32579861    -0.24000
C1038       C  0.07894410  0.73720888  0.35216769    -0.28500
C1039       C  0.10522016  0.74776322  0.35657150     0.07000
C1040       C  0.12781984  0.73041344  0.35495070    -0.27200
H1041       H  0.03126352  0.71206505  0.34305974     0.11700
H1042       H  0.02507933  0.66409406  0.33153947     0.12900
H1043       H  0.16730905  0.69309614  0.35045120     0.11900
H1044       H  0.16112411  0.64516649  0.33897809     0.11200
H1045       H  0.13141983  0.60752282  0.32673184     0.16600
H1046       H  0.04449154  0.61902748  0.32217442     0.12500
H1047       H  0.06146987  0.75059991  0.35277517     0.15300
H1048       H  0.14808491  0.73838349  0.35846000     0.15100
C1049       C  0.91008986  0.43034224  0.20950240    -0.17800
C1050       C  0.89130999  0.41482448  0.19471219    -0.19900
C1051       C  0.90002371  0.39260387  0.17913031     0.20700
C1052       C  0.92799635  0.38616511  0.17814924    -0.02900
C1053       C  0.94690254  0.40164136  0.19330107    -0.05900
C1054       C  0.93790407  0.42380093  0.20914405     0.21000
C1055       C  0.97469436  0.39446222  0.19317283     0.19200
C1056       C  0.98348316  0.37247379  0.17731725    -0.17400
C1057       C  0.96479618  0.35725193  0.16220276    -0.19600
C1058       C  0.93699470  0.36370911  0.16275235     0.20600
C1059       C  0.91793155  0.34739405  0.14917546    -0.32600
C1060       C  0.89001855  0.35298390  0.15108229     0.01300
C1061       C  0.88121103  0.37606906  0.16538848    -0.24000
C1062       C  0.95676458  0.43850730  0.22490149    -0.28500
C1063       C  0.98429562  0.43076531  0.22560681     0.07000
C1064       C  0.99311969  0.40894295  0.20942915    -0.27200
H1065       H  0.90278828  0.44720814  0.22158975     0.11700
H1066       H  0.86989967  0.41998894  0.19575778     0.12900
H1067       H  0.00478092  0.36678179  0.17693616     0.11900
H1068       H  0.97202682  0.34008810  0.15049583     0.11200
H1069       H  0.92464480  0.32932213  0.13863628     0.16600
H1070       H  0.85961709  0.38035009  0.16684776     0.12500
H1071       H  0.94986638  0.45520066  0.23748127     0.15300
H1072       H  0.01438506  0.40307718  0.20967201     0.15100
C1073       C  0.27137176  0.19918875  0.43135983    -0.17800
C1074       C  0.26863113  0.17618863  0.44780528    -0.19900
C1075       C  0.29165319  0.16132439  0.45577453     0.20700
C1076       C  0.31776202  0.16989796  0.44747725    -0.02900
C1077       C  0.32049348  0.19289956  0.43052962    -0.05900
C1078       C  0.29715381  0.20753527  0.42239071     0.21000
C1079       C  0.34647850  0.20092470  0.42132233     0.19200
C1080       C  0.36955681  0.18638467  0.42983111    -0.17400
C1081       C  0.36688422  0.16380909  0.44698450    -0.19600
C1082       C  0.34106731  0.15523741  0.45572282     0.20600
C1083       C  0.33805110  0.13203048  0.47213487    -0.32600
C1084       C  0.31198926  0.12297772  0.47970216     0.01300
C1085       C  0.28895003  0.13783113  0.47159071    -0.24000
C1086       C  0.29989606  0.22987549  0.40491263    -0.28500
C1087       C  0.32558569  0.23740366  0.39482723     0.07000
C1088       C  0.34883835  0.22300474  0.40336638    -0.27200
H1089       H  0.25326765  0.21021345  0.42530224     0.11700
H1090       H  0.24846194  0.16990660  0.45413687     0.12900
H1091       H  0.38967220  0.19234486  0.42303851     0.11900
H1092       H  0.38498922  0.15282484  0.45310718     0.11200
H1093       H  0.35584568  0.12053791  0.47826443     0.16600
H1094       H  0.26883706  0.13114095  0.47770942     0.12500
H1095       H  0.28187247  0.24078132  0.39836495     0.15300
H1096       H  0.36875149  0.22887225  0.39588581     0.15100
C1097       C  0.38863647  0.04295790  0.71249908    -0.17800
C1098       C  0.39248138  0.05262572  0.73907049    -0.19900
C1099       C  0.37053228  0.05406643  0.75731330     0.20700
C1100       C  0.34452821  0.04516631  0.74885196    -0.02900
C1101       C  0.34074047  0.03501274  0.72218487    -0.05900
C1102       C  0.36282117  0.03429375  0.70380137     0.21000
C1103       C  0.31476791  0.02598712  0.71380154     0.19200
C1104       C  0.29287495  0.02715738  0.73213735    -0.17400
C1105       C  0.29657349  0.03739822  0.75848191    -0.19600
C1106       C  0.32226966  0.04651879  0.76698806     0.20600
C1107       C  0.32614697  0.05674190  0.79337998    -0.32600
C1108       C  0.35196151  0.06542533  0.80194705     0.01300
C1109       C  0.37408792  0.06414818  0.78386764    -0.24000
C1110       C  0.35853944  0.02552115  0.67689009    -0.28500
C1111       C  0.33261065  0.01696291  0.66828272     0.07000
C1112       C  0.31098629  0.01662764  0.68703118    -0.27200
H1113       H  0.40583167  0.04241357  0.69868939     0.11700
H1114       H  0.41260045  0.05922302  0.74527922     0.12900
H1115       H  0.27278960  0.02037453  0.72600995     0.11900
H1116       H  0.27931481  0.03822936  0.77220081     0.11200
H1117       H  0.30929416  0.05712607  0.80761042     0.16600
H1118       H  0.39405001  0.07070390  0.79065279     0.12500
H1119       H  0.37526654  0.02572111  0.66247635     0.15300
H1120       H  0.29087827  0.01036872  0.68039670     0.15100
C1121       C  0.19618390  0.85863220  0.48929435    -0.17800
C1122       C  0.18284083  0.84045934  0.47186548    -0.19900
C1123       C  0.16682678  0.85006375  0.45016049     0.20700
C1124       C  0.16374087  0.87825705  0.44634516    -0.02900
C1125       C  0.17718295  0.89655808  0.46391989    -0.05900
C1126       C  0.19372836  0.88673541  0.48534556     0.21000
C1127       C  0.17449602  0.92468733  0.45965976     0.19200
C1128       C  0.15810649  0.93433931  0.43828274    -0.17400
C1129       C  0.14484837  0.91624272  0.42086182    -0.19600
C1130       C  0.14771511  0.88820538  0.42457541     0.20600
C1131       C  0.13551700  0.86998105  0.40640056    -0.32600
C1132       C  0.13944182  0.84200436  0.40943318     0.01300
C1133       C  0.15445766  0.83206883  0.43174482    -0.24000
C1134       C  0.20802346  0.90517173  0.50194569    -0.28500
C1135       C  0.20606680  0.93328042  0.49723028     0.07000
C1136       C  0.18869806  0.94275293  0.47642137    -0.27200
H1137       H  0.20873644  0.85069105  0.50564125     0.11700
H1138       H  0.18540306  0.81887558  0.47509949     0.12900
H1139       H  0.15584644  0.95591812  0.43479245     0.11900
H1140       H  0.13262989  0.92418304  0.40425557     0.11200
H1141       H  0.12393421  0.87756512  0.38914779     0.16600
H1142       H  0.15692847  0.81041566  0.43442465     0.12500
H1143       H  0.22129077  0.89757848  0.51787789     0.15300
H1144       H  0.18640002  0.96429626  0.47288314     0.15100
C1145       C  0.39278599  0.22190285  0.26639726    -0.17800
C1146       C  0.40976995  0.21897705  0.24374173    -0.19900
C1147       C  0.42500437  0.24105362  0.23410210     0.20700
C1148       C  0.42323523  0.26632216  0.24743038    -0.02900
C1149       C  0.40573094  0.26940324  0.27000973    -0.05900
C1150       C  0.39056605  0.24702271  0.27958216     0.21000
C1151       C  0.40317879  0.29491339  0.28279990     0.19200
C1152       C  0.41869838  0.31688197  0.27332956    -0.17400
C1153       C  0.43644713  0.31369194  0.25123722    -0.19600
C1154       C  0.43871779  0.28856658  0.23802768     0.20600
C1155       C  0.45583568  0.28537639  0.21533163    -0.32600
C1156       C  0.45708355  0.26043100  0.20157076     0.01300
C1157       C  0.44175375  0.23834789  0.21119024    -0.24000
C1158       C  0.37320774  0.25022857  0.30198010    -0.28500
C1159       C  0.37012020  0.27568470  0.31436460     0.07000
C1160       C  0.38499316  0.29799912  0.30466330    -0.27200
H1161       H  0.38120368  0.20457105  0.27347013     0.11700
H1162       H  0.41096216  0.19944420  0.23372818     0.12900
H1163       H  0.41707107  0.33655857  0.28298177     0.11900
H1164       H  0.44816504  0.33097536  0.24427412     0.11200
H1165       H  0.46751009  0.30249595  0.20787659     0.16600
H1166       H  0.44294873  0.21894859  0.20091007     0.12500
H1167       H  0.36143292  0.23310239  0.30930422     0.15300
H1168       H  0.38255527  0.31761528  0.31430962     0.15100
C1169       C  0.69735769  0.32743271  0.13323101    -0.17800
C1170       C  0.72502892  0.33342945  0.13640440    -0.19900
C1171       C  0.74493701  0.31598598  0.12582830     0.20700
C1172       C  0.73684947  0.29221050  0.11193248    -0.02900
C1173       C  0.70893878  0.28629967  0.10852208    -0.05900
C1174       C  0.68911859  0.30397077  0.11928531     0.21000
C1175       C  0.70089294  0.26271151  0.09435868     0.19200
C1176       C  0.72079347  0.24510848  0.08401378    -0.17400
C1177       C  0.74844530  0.25080516  0.08763403    -0.19600
C1178       C  0.75664785  0.27428586  0.10150261     0.20600
C1179       C  0.78429057  0.28013267  0.10520039    -0.32600
C1180       C  0.79235145  0.30388662  0.11863120     0.01300
C1181       C  0.77276347  0.32177217  0.12896020    -0.24000
C1182       C  0.66142083  0.29790704  0.11587065    -0.28500
C1183       C  0.65320638  0.27454805  0.10157665     0.07000
C1184       C  0.67311163  0.25709082  0.09083808    -0.27200
H1185       H  0.68237916  0.34120882  0.14162373     0.11700
H1186       H  0.73086104  0.35169501  0.14718020     0.12900
H1187       H  0.71496721  0.22688832  0.07315686     0.11900
H1188       H  0.76343156  0.23686825  0.07952373     0.11200
H1189       H  0.79965695  0.26633990  0.09749160     0.16600
H1190       H  0.77922538  0.33995164  0.13954316     0.12500
H1191       H  0.64627575  0.31162828  0.12403977     0.15300
H1192       H  0.66703459  0.23888285  0.08010521     0.15100
C1193       C  0.48346954  0.13408664  0.93727373    -0.17800
C1194       C  0.46776677  0.12077796  0.91750200    -0.19900
C1195       C  0.43935785  0.12391413  0.91693352     0.20700
C1196       C  0.42672536  0.14107764  0.93617124    -0.02900
C1197       C  0.44252780  0.15433181  0.95619464    -0.05900
C1198       C  0.47104061  0.15069417  0.95690226     0.21000
C1199       C  0.42969688  0.17089190  0.97576371     0.19200
C1200       C  0.40141379  0.17471271  0.97476257    -0.17400
C1201       C  0.38581003  0.16180743  0.95480483    -0.19600
C1202       C  0.39822644  0.14475959  0.93564280     0.20600
C1203       C  0.38259426  0.13121165  0.91607818    -0.32600
C1204       C  0.39496511  0.11388516  0.89713704     0.01300
C1205       C  0.42330214  0.11018805  0.89759994    -0.24000
C1206       C  0.48645712  0.16326090  0.97756003    -0.28500
C1207       C  0.47356022  0.17894904  0.99771965     0.07000
C1208       C  0.44524940  0.18299425  0.99632489    -0.27200
H1209       H  0.50531793  0.13110287  0.93742698     0.11700
H1210       H  0.47783019  0.10784652  0.90278322     0.12900
H1211       H  0.39131538  0.18749438  0.98959442     0.11900
H1212       H  0.36397490  0.16491296  0.95455198     0.11200
H1213       H  0.36070092  0.13404686  0.91551494     0.16600
H1214       H  0.43281323  0.09712648  0.88266585     0.12500
H1215       H  0.50826392  0.16007166  0.97850469     0.15300
H1216       H  0.43517787  0.19554192  0.01137294     0.15100
loop_ 
_geom_bond_atom_site_label_1 
_geom_bond_atom_site_label_2 
_geom_bond_distance 
_geom_bond_site_symmetry_2 
_ccdc_geom_bond_type 
N1            N2   1.321       .  A
N1            C5   1.351       .  A
N1           Cu9   2.090       .  S
N2            C3   1.339       .  A
N2           Cu8   2.058       .  S
C3            C4   1.382       .  A
C3            H6   1.082       .  S
C4            C5   1.391       .  A
C4         C1207   1.482   1_554  S
C5            H7   1.082       .  S
Cu8          N11   2.057       .  S
Cu9          N19   2.092       .  S
Cu10         N12   2.069       .  S
Cu10         N18   2.070       .  S
N11          N12   1.319       .  A
N11          C15   1.341       .  A
N12          C13   1.346       .  A
C13          C14   1.387       .  A
C13          H16   1.082       .  S
C14          C15   1.383       .  A
C14        C1156   1.476       .  S
C15          H17   1.082       .  S
N18          N19   1.324       .  A
N18          C22   1.343       .  A
N19          C20   1.347       .  A
C20          C21   1.389       .  A
C20          H23   1.082       .  S
C21          C22   1.383       .  A
C21        C1183   1.483       .  S
C22          H24   1.082       .  S
N25          N26   1.320       .  A
N25          C29   1.351       .  A
N25         Cu33   2.090       .  S
N26          C27   1.339       .  A
N26         Cu32   2.058   1_565  S
C27          C28   1.384       .  A
C27          H30   1.081       .  S
C28          C29   1.393       .  A
C28        C1135   1.487       .  S
C29          H31   1.081       .  S
Cu32         N35   2.058       .  S
Cu33         N43   2.092       .  S
Cu34         N36   2.078       .  S
Cu34         N42   2.078       .  S
N35          N36   1.320       .  A
N35          C39   1.341       .  A
N36          C37   1.348       .  A
C37          C38   1.388       .  A
C37          H40   1.082       .  S
C38          C39   1.383       .  A
C38        C1084   1.478       .  S
C39          H41   1.082       .  S
N42          N43   1.325   1_545  A
N42          C46   1.344       .  A
N43          C44   1.348       .  A
C44          C45   1.387   1_565  A
C44          H47   1.082       .  S
C45          C46   1.382       .  A
C45        C1111   1.480       .  S
C46          H48   1.082       .  S
N49          N50   1.323       .  A
N49          C53   1.351       .  A
N49         Cu57   2.098       .  S
N50          C51   1.341       .  A
N50         Cu56   2.067       .  S
C51          C52   1.381       .  A
C51          H54   1.082       .  S
C52          C53   1.389       .  A
C52        C1063   1.481   1_455  S
C53          H55   1.082   1_455  S
Cu56         N59   2.066       .  S
Cu57         N67   2.098       .  S
Cu58         N60   2.069       .  S
Cu58         N66   2.070       .  S
N59          N60   1.319       .  A
N59          C63   1.344       .  A
N60          C61   1.345       .  A
C61          C62   1.387       .  A
C61          H64   1.082       .  S
C62          C63   1.386       .  A
C62        C1012   1.480       .  S
C63          H65   1.082       .  S
N66          N67   1.323       .  A
N66          C70   1.341       .  A
N67          C68   1.351       .  A
C68          C69   1.393       .  A
C68          H71   1.081       .  S
C69          C70   1.385       .  A
C69        C1036   1.490       .  S
C70          H72   1.081       .  S
C73          N74   1.360       .  A
C73          N78   1.360       .  A
C73        C1015   1.479       .  S
N74          C75   1.359       .  A
C75          N76   1.357       .  A
C75        C1087   1.480       .  S
N76          C77   1.357       .  A
C77          N78   1.359       .  A
C77        C1159   1.470       .  S
C79          H80   1.111       .  S
C79          C85   1.540       .  S
C79          C84   1.538       .  S
C79          C83   1.543       .  S
C81          H82   1.111       .  S
C81          C87   1.530       .  S
C81          C86   1.538       .  S
C81          C88   1.533       .  S
C83          C86   1.379       .  D
C83         C940   1.491       .  S
C84          C87   1.367       .  D
C84         C988   1.473       .  S
C85          C88   1.375       .  D
C85         C967   1.485       .  S
C86         C916   1.489       .  S
C87         C892   1.479       .  S
C88         C868   1.475       .  S
N89          N90   1.322       .  A
N89          C93   1.353       .  A
N89         Cu97   2.097       .  S
N90          C91   1.340   1_554  A
N90         Cu96   2.066       .  S
C91          C92   1.381   1_556  A
C91          H94   1.082       .  S
C92          C93   1.390       .  A
C92         C847   1.481   1_554  S
C93          H95   1.082       .  S
Cu96         N99   2.065       .  S
Cu97        N107   2.098       .  S
Cu98        N100   2.068       .  S
Cu98        N106   2.069       .  S
N99         N100   1.320       .  A
N99         C103   1.343   1_554  A
N100        C101   1.346       .  A
C101        C102   1.385   1_554  A
C101        H104   1.082       .  S
C102        C103   1.383       .  A
C102        C799   1.474       .  S
C103        H105   1.082       .  S
N106        N107   1.324       .  A
N106        C110   1.343       .  A
N107        C108   1.349       .  A
C108        C109   1.389       .  A
C108        H111   1.082       .  S
C109        C110   1.381       .  A
C109        C823   1.482       .  S
C110        H112   1.082       .  S
N113        N114   1.322       .  A
N113        C117   1.351       .  A
N113       Cu121   2.084       .  S
N114        C115   1.338       .  A
N114       Cu120   2.067       .  S
C115        C116   1.385       .  A
C115        H118   1.081       .  S
C116        C117   1.391       .  A
C116        C991   1.487       .  S
C117        H119   1.082       .  S
Cu120       N123   2.067       .  S
Cu121       N131   2.085       .  S
Cu122       N124   2.064       .  S
Cu122       N130   2.066       .  S
N123        N124   1.319       .  A
N123        C127   1.343       .  A
N124        C125   1.345       .  A
C125        C126   1.385       .  A
C125        H128   1.082       .  S
C126        C127   1.386       .  A
C126        C748   1.478       .  S
C127        H129   1.082       .  S
N130        N131   1.323       .  A
N130        C134   1.340       .  A
N131        C132   1.348       .  A
C132        C133   1.388       .  A
C132        H135   1.082       .  S
C133        C134   1.383       .  A
C133        C775   1.482       .  S
C134        H136   1.081       .  S
N137        N138   1.321       .  A
N137        C141   1.351       .  A
N137       Cu145   2.090       .  S
N138        C139   1.339       .  A
N138       Cu144   2.056       .  S
C139        C140   1.381       .  A
C139        H142   1.082   1_655  S
C140        C141   1.390       .  A
C140        C724   1.480       .  S
C141        H143   1.082       .  S
Cu144       N147   2.056       .  S
Cu145       N155   2.092       .  S
Cu146       N148   2.072       .  S
Cu146       N154   2.073       .  S
N147        N148   1.320       .  A
N147        C151   1.341       .  A
N148        C149   1.347       .  A
C149        C150   1.386       .  A
C149        H152   1.082       .  S
C150        C151   1.381       .  A
C150        C703   1.473   1_655  S
C151        H153   1.082   1_655  S
N154        N155   1.325       .  A
N154        C158   1.343       .  A
N155        C156   1.347       .  A
C156        C157   1.387       .  A
C156        H159   1.082       .  S
C157        C158   1.382       .  A
C157        C871   1.480       .  S
C158        H160   1.082       .  S
C161        N162   1.359       .  A
C161        N166   1.360       .  A
C161        C700   1.476       .  S
N162        C163   1.359       .  A
C163        N164   1.358       .  A
C163        C751   1.477       .  S
N164        C165   1.357       .  A
C165        N166   1.357       .  A
C165        C796   1.480       .  S
C167        H168   1.111       .  S
C167        C173   1.537       .  S
C167        C172   1.539       .  S
C167        C171   1.546       .  S
C169        H170   1.109       .  S
C169        C175   1.534       .  S
C169        C174   1.536       .  S
C169        C176   1.534       .  S
C171        C174   1.381       .  D
C171        C844   1.487       .  S
C172        C175   1.373       .  D
C172       C1204   1.479       .  S
C173        C176   1.371       .  D
C173        C676   1.482       .  S
C174        C652   1.498       .  S
C175        C772   1.486       .  S
C176       C1108   1.481       .  S
N177        N178   1.323   1_455  A
N177        C181   1.351       .  A
N177       Cu185   2.099       .  S
N178        C179   1.342       .  A
N178       Cu184   2.069       .  S
C179        C180   1.383       .  A
C179        H182   1.082       .  S
C180        C181   1.391   1_655  A
C180        C628   1.485       .  S
C181        H183   1.082       .  S
Cu184       N187   2.067       .  S
Cu185       N195   2.100       .  S
Cu186       N188   2.061       .  S
Cu186       N194   2.063       .  S
N187        N188   1.319   1_655  A
N187        C191   1.343       .  A
N188        C189   1.344       .  A
C189        C190   1.385   1_455  A
C189        H192   1.082       .  S
C190        C191   1.387       .  A
C190        C604   1.479       .  S
C191        H193   1.082       .  S
N194        N195   1.322       .  A
N194        C198   1.341       .  A
N195        C196   1.350       .  A
C196        C197   1.393       .  A
C196        H199   1.081       .  S
C197        C198   1.384       .  A
C197        C655   1.489       .  S
C198        H200   1.081       .  S
N201        N202   1.321       .  A
N201        C205   1.349       .  A
N201       Cu209   2.088       .  S
N202        C203   1.341       .  A
N202       Cu208   2.059       .  S
C203        C204   1.382       .  A
C203        H206   1.082       .  S
C204        C205   1.389       .  A
C204        C964   1.480       .  S
C205        H207   1.082       .  S
Cu208       N211   2.059       .  S
Cu209       N219   2.090       .  S
Cu210       N212   2.073       .  S
Cu210       N218   2.075       .  S
N211        N212   1.321       .  A
N211        C215   1.341       .  A
N212        C213   1.347       .  A
C213        C214   1.386       .  A
C213        H216   1.082       .  S
C214        C215   1.381       .  A
C214        C556   1.474       .  S
C215        H217   1.082       .  S
N218        N219   1.324       .  A
N218        C222   1.344       .  A
N219        C220   1.348       .  A
C220        C221   1.388       .  A
C220        H223   1.082       .  S
C221        C222   1.384       .  A
C221        C580   1.482       .  S
C222        H224   1.082       .  S
N225        N226   1.323       .  A
N225        C229   1.352       .  A
N225       Cu233   2.101       .  S
N226        C227   1.339       .  A
N226       Cu232   2.055       .  S
C227        C228   1.379       .  A
C227        H230   1.082       .  S
C228        C229   1.391       .  A
C228        C679   1.481       .  S
C229        H231   1.082       .  S
Cu232       N235   2.053       .  S
Cu233       N243   2.103       .  S
Cu234       N236   2.065       .  S
Cu234       N242   2.066       .  S
N235        N236   1.318       .  A
N235        C239   1.341       .  A
N236        C237   1.345       .  A
C237        C238   1.386       .  A
C237        H240   1.082       .  S
C238        C239   1.382       .  A
C238        C532   1.474       .  S
C239        H241   1.082       .  S
N242        N243   1.323       .  A
N242        C246   1.340       .  A
N243        C244   1.351       .  A
C244        C245   1.393       .  A
C244        H247   1.081       .  S
C245        C246   1.383       .  A
C245        C919   1.489       .  S
C246        H248   1.081       .  S
C249        N250   1.353       .  A
C249        N254   1.357       .  A
C249        C535   1.474       .  S
N250        C251   1.355       .  A
C251        N252   1.359       .  A
C251        C607   1.473       .  S
N252        C253   1.361       .  A
C253        N254   1.360       .  A
C253        C559   1.476       .  S
C255        H256   1.111       .  S
C255        C261   1.541       .  S
C255        C260   1.545       .  S
C255        C259   1.544       .  S
C257        H258   1.111       .  S
C257        C263   1.536       .  S
C257        C262   1.531       .  S
C257        C264   1.531       .  S
C259        C262   1.373       .  D
C259        C508   1.489       .  S
C260        C263   1.380       .  D
C260        C631   1.491       .  S
C261        C264   1.371       .  D
C261       C1060   1.484       .  S
C262       C1180   1.472       .  S
C263        C484   1.491       .  S
C264        C583   1.479       .  S
N265        N266   1.323       .  A
N265        C269   1.351       .  A
N265       Cu273   2.094   1_565  S
N266        C267   1.341       .  A
N266       Cu272   2.065       .  S
C267        C268   1.382       .  A
C267        H270   1.082       .  S
C268        C269   1.389       .  A
C268        C460   1.482       .  S
C269        H271   1.082       .  S
Cu272       N275   2.064       .  S
Cu273       N283   2.095       .  S
Cu274       N276   2.065   1_545  S
Cu274       N282   2.065       .  S
N275        N276   1.319       .  A
N275        C279   1.344       .  A
N276        C277   1.343       .  A
C277        C278   1.386       .  A
C277        H280   1.082       .  S
C278        C279   1.386       .  A
C278        C436   1.479       .  S
C279        H281   1.082       .  S
N282        N283   1.322       .  A
N282        C286   1.342       .  A
N283        C284   1.348       .  A
C284        C285   1.392       .  A
C284        H287   1.081       .  S
C285        C286   1.385       .  A
C285        C487   1.489       .  S
C286        H288   1.081       .  S
N289        N290   1.323       .  A
N289        C293   1.351       .  A
N289       Cu297   2.098       .  S
N290        C291   1.343       .  A
N290       Cu296   2.072       .  S
C291        C292   1.383       .  A
C291        H294   1.082       .  S
C292        C293   1.390       .  A
C292        C943   1.485       .  S
C293        H295   1.082       .  S
Cu296       N299   2.070       .  S
Cu297       N307   2.098       .  S
Cu298       N300   2.062       .  S
Cu298       N306   2.064       .  S
N299        N300   1.320       .  A
N299        C303   1.343       .  A
N300        C301   1.346       .  A
C301        C302   1.382       .  A
C301        H304   1.082       .  S
C302        C303   1.382       .  A
C302        C391   1.470       .  S
C303        H305   1.082       .  S
N306        N307   1.323       .  A
N306        C310   1.341       .  A
N307        C308   1.350       .  A
C308        C309   1.391       .  A
C308        H311   1.082       .  S
C309        C310   1.382       .  A
C309        C412   1.485       .  S
C310        H312   1.082       .  S
N313        N314   1.322       .  A
N313        C317   1.355       .  A
N313       Cu321   2.111       .  S
N314        C315   1.341       .  A
N314       Cu320   2.063       .  S
C315        C316   1.382       .  A
C315        H318   1.082   1_556  S
C316        C317   1.395       .  A
C316        C511   1.490       .  S
C317        H319   1.082       .  S
Cu320       N323   2.062       .  S
Cu321       N331   2.112       .  S
Cu322       N324   2.069       .  S
Cu322       N330   2.071       .  S
N323        N324   1.319       .  A
N323        C327   1.341   1_556  A
N324        C325   1.347       .  A
C325        C326   1.386   1_556  A
C325        H328   1.082       .  S
C326        C327   1.384       .  A
C326        C364   1.477       .  S
C327        H329   1.082       .  S
N330        N331   1.324       .  A
N330        C334   1.343       .  A
N331        C332   1.351       .  A
C332        C333   1.395       .  A
C332        H335   1.081       .  S
C333        C334   1.385       .  A
C333        C895   1.494       .  S
C334        H336   1.081       .  S
C337        N338   1.357       .  A
C337        N342   1.357       .  A
C337        C439   1.480       .  S
N338        C339   1.359       .  A
C339        N340   1.359       .  A
C339        C388   1.481       .  S
N340        C341   1.359       .  A
C341        N342   1.359       .  A
C341        C367   1.476       .  S
C343        H344   1.111       .  S
C343        C349   1.535       .  S
C343        C348   1.535       .  S
C343        C347   1.540       .  S
C345        H346   1.111       .  S
C345        C351   1.539       .  S
C345        C350   1.532       .  S
C345        C352   1.534       .  S
C347        C350   1.371       .  D
C347       C1132   1.480       .  S
C348        C351   1.376       .  D
C348        C727   1.478       .  S
C349        C352   1.371       .  D
C349        C463   1.476       .  S
C350        C415   1.474       .  S
C351       C1039   1.489       .  S
C352        C820   1.481       .  S
C353        C354   1.400       .  A
C353        C358   1.404       .  A
C353        H369   1.083       .  S
C354        C355   1.404       .  A
C354        H370   1.083       .  S
C355        C365   1.405       .  A
C355        C356   1.412       .  A
C356        C362   1.411       .  A
C356        C357   1.411       .  A
C357        C359   1.412       .  A
C357        C358   1.411       .  A
C358        C366   1.404       .  A
C359        C368   1.400       .  A
C359        C360   1.403       .  A
C360        C361   1.397       .  A
C360        H371   1.084       .  S
C361        C362   1.403       .  A
C361        H372   1.084       .  S
C362        C363   1.399       .  A
C363        C364   1.405       .  A
C363        H373   1.084       .  S
C364        C365   1.406       .  A
C365        H374   1.084       .  S
C366        C367   1.406       .  A
C366        H375   1.084       .  S
C367        C368   1.405       .  A
C368        H376   1.084       .  S
C377        C378   1.401       .  A
C377        C382   1.404       .  A
C377        H393   1.083       .  S
C378        C379   1.404       .  A
C378        H394   1.083       .  S
C379        C389   1.405       .  A
C379        C380   1.411       .  A
C380        C386   1.411       .  A
C380        C381   1.411       .  A
C381        C383   1.412       .  A
C381        C382   1.413       .  A
C382        C390   1.405       .  A
C383        C392   1.399       .  A
C383        C384   1.402       .  A
C384        C385   1.396       .  A
C384        H395   1.084       .  S
C385        C386   1.403       .  A
C385        H396   1.084       .  S
C386        C387   1.399       .  A
C387        C388   1.407       .  A
C387        H397   1.084       .  S
C388        C389   1.408       .  A
C389        H398   1.084       .  S
C390        C391   1.405       .  A
C390        H399   1.084       .  S
C391        C392   1.401       .  A
C392        H400   1.085       .  S
C401        C402   1.399       .  A
C401        C406   1.403       .  A
C401        H417   1.084       .  S
C402        C403   1.404       .  A
C402        H418   1.084       .  S
C403        C413   1.402       .  A
C403        C404   1.410       .  A
C404        C410   1.413       .  A
C404        C405   1.412       .  A
C405        C407   1.411       .  A
C405        C406   1.414       .  A
C406        C414   1.404       .  A
C407        C416   1.401       .  A
C407        C408   1.403       .  A
C408        C409   1.399       .  A
C408        H419   1.084       .  S
C409        C410   1.404       .  A
C409        H420   1.083       .  S
C410        C411   1.405       .  A
C411        C412   1.406       .  A
C411        H421   1.083       .  S
C412        C413   1.409       .  A
C413        H422   1.083       .  S
C414        C415   1.401       .  A
C414        H423   1.084       .  S
C415        C416   1.402       .  A
C416        H424   1.085       .  S
C425        C426   1.399       .  A
C425        C430   1.403       .  A
C425        H441   1.084       .  S
C426        C427   1.403       .  A
C426        H442   1.083       .  S
C427        C437   1.403       .  A
C427        C428   1.412       .  A
C428        C434   1.411       .  A
C428        C429   1.411       .  A
C429        C431   1.411       .  A
C429        C430   1.411       .  A
C430        C438   1.402       .  A
C431        C440   1.402       .  A
C431        C432   1.403       .  A
C432        C433   1.398       .  A
C432        H443   1.084       .  S
C433        C434   1.403       .  A
C433        H444   1.084       .  S
C434        C435   1.401       .  A
C435        C436   1.406       .  A
C435        H445   1.083       .  S
C436        C437   1.406       .  A
C437        H446   1.084       .  S
C438        C439   1.407       .  A
C438        H447   1.084       .  S
C439        C440   1.407       .  A
C440        H448   1.084       .  S
C449        C450   1.397   1_455  A
C449        C454   1.402       .  A
C449        H465   1.084       .  S
C450        C451   1.403   1_655  A
C450        H466   1.084       .  S
C451        C461   1.400   1_455  A
C451        C452   1.410       .  A
C452        C458   1.413       .  A
C452        C453   1.412       .  A
C453        C455   1.412       .  A
C453        C454   1.412       .  A
C454        C462   1.400       .  A
C455        C464   1.406       .  A
C455        C456   1.404       .  A
C456        C457   1.402       .  A
C456        H467   1.083       .  S
C457        C458   1.405       .  A
C457        H468   1.083       .  S
C458        C459   1.408       .  A
C459        C460   1.407   1_455  A
C459        H469   1.084       .  S
C460        C461   1.407       .  A
C461        H470   1.084       .  S
C462        C463   1.401       .  A
C462        H471   1.084       .  S
C463        C464   1.404       .  A
C464        H472   1.084       .  S
C473        C474   1.400       .  A
C473        C478   1.405       .  A
C473        H489   1.083       .  S
C474        C475   1.404       .  A
C474        H490   1.084       .  S
C475        C485   1.406       .  A
C475        C476   1.412       .  A
C476        C482   1.410       .  A
C476        C477   1.413       .  A
C477        C479   1.412       .  A
C477        C478   1.410       .  A
C478        C486   1.404       .  A
C479        C488   1.404       .  A
C479        C480   1.403       .  A
C480        C481   1.399       .  A
C480        H491   1.083       .  S
C481        C482   1.403       .  A
C481        H492   1.084       .  S
C482        C483   1.402       .  A
C483        C484   1.407       .  A
C483        H493   1.084       .  S
C484        C485   1.407       .  A
C485        H494   1.084       .  S
C486        C487   1.411       .  A
C486        H495   1.083       .  S
C487        C488   1.407       .  A
C488        H496   1.083       .  S
C497        C498   1.399       .  A
C497        C502   1.404       .  A
C497        H513   1.084       .  S
C498        C499   1.403       .  A
C498        H514   1.084       .  S
C499        C509   1.404       .  A
C499        C500   1.413       .  A
C500        C506   1.411       .  A
C500        C501   1.416       .  A
C501        C503   1.413       .  A
C501        C502   1.410       .  A
C502        C510   1.402       .  A
C503        C512   1.412   1_554  A
C503        C504   1.405       .  A
C504        C505   1.403       .  A
C504        H515   1.083   1_554  S
C505        C506   1.405       .  A
C505        H516   1.084       .  S
C506        C507   1.409       .  A
C507        C508   1.408       .  A
C507        H517   1.083       .  S
C508        C509   1.404       .  A
C509        H518   1.085       .  S
C510        C511   1.409   1_554  A
C510        H519   1.084       .  S
C511        C512   1.409       .  A
C512        H520   1.084       .  S
C521        C522   1.397       .  A
C521        C526   1.403   1_565  A
C521        H537   1.084       .  S
C522        C523   1.403       .  A
C522        H538   1.084       .  S
C523        C533   1.401       .  A
C523        C524   1.412   1_565  A
C524        C530   1.411       .  A
C524        C525   1.409       .  A
C525        C527   1.412       .  A
C525        C526   1.410       .  A
C526        C534   1.399       .  A
C527        C536   1.402       .  A
C527        C528   1.403       .  A
C528        C529   1.398       .  A
C528        H539   1.084       .  S
C529        C530   1.403       .  A
C529        H540   1.084       .  S
C530        C531   1.400       .  A
C531        C532   1.405   1_545  A
C531        H541   1.084       .  S
C532        C533   1.404       .  A
C533        H542   1.084       .  S
C534        C535   1.406       .  A
C534        H543   1.084       .  S
C535        C536   1.405       .  A
C536        H544   1.084       .  S
C545        C546   1.397       .  A
C545        C550   1.403       .  A
C545        H561   1.084       .  S
C546        C547   1.403       .  A
C546        H562   1.084       .  S
C547        C557   1.399       .  A
C547        C548   1.411       .  A
C548        C554   1.413       .  A
C548        C549   1.410       .  A
C549        C551   1.411       .  A
C549        C550   1.411       .  A
C550        C558   1.400       .  A
C551        C560   1.403       .  A
C551        C552   1.404       .  A
C552        C553   1.399       .  A
C552        H563   1.084       .  S
C553        C554   1.403       .  A
C553        H564   1.083       .  S
C554        C555   1.404       .  A
C555        C556   1.405       .  A
C555        H565   1.084       .  S
C556        C557   1.405       .  A
C557        H566   1.084       .  S
C558        C559   1.406       .  A
C558        H567   1.084       .  S
C559        C560   1.406       .  A
C560        H568   1.084       .  S
C569        C570   1.399       .  A
C569        C574   1.403       .  A
C569        H585   1.084       .  S
C570        C571   1.404       .  A
C570        H586   1.084       .  S
C571        C581   1.404       .  A
C571        C572   1.412       .  A
C572        C578   1.411       .  A
C572        C573   1.413       .  A
C573        C575   1.413       .  A
C573        C574   1.412       .  A
C574        C582   1.403       .  A
C575        C584   1.405       .  A
C575        C576   1.403       .  A
C576        C577   1.400       .  A
C576        H587   1.084       .  S
C577        C578   1.404       .  A
C577        H588   1.084       .  S
C578        C579   1.404       .  A
C579        C580   1.407       .  A
C579        H589   1.084       .  S
C580        C581   1.406       .  A
C581        H590   1.084       .  S
C582        C583   1.402       .  A
C582        H591   1.084       .  S
C583        C584   1.404       .  A
C584        H592   1.084       .  S
C593        C594   1.396       .  A
C593        C598   1.402       .  A
C593        H609   1.084       .  S
C594        C595   1.402       .  A
C594        H610   1.084       .  S
C595        C605   1.399       .  A
C595        C596   1.412       .  A
C596        C602   1.411       .  A
C596        C597   1.410       .  A
C597        C599   1.413       .  A
C597        C598   1.410       .  A
C598        C606   1.396       .  A
C599        C608   1.405       .  A
C599        C600   1.403       .  A
C600        C601   1.400       .  A
C600        H611   1.084       .  S
C601        C602   1.404       .  A
C601        H612   1.083       .  S
C602        C603   1.403       .  A
C603        C604   1.408       .  A
C603        H613   1.083       .  S
C604        C605   1.405       .  A
C605        H614   1.083       .  S
C606        C607   1.406       .  A
C606        H615   1.084       .  S
C607        C608   1.405       .  A
C608        H616   1.084       .  S
C617        C618   1.398       .  A
C617        C622   1.403       .  A
C617        H633   1.084       .  S
C618        C619   1.403       .  A
C618        H634   1.084       .  S
C619        C629   1.402       .  A
C619        C620   1.411       .  A
C620        C626   1.412       .  A
C620        C621   1.414       .  A
C621        C623   1.412       .  A
C621        C622   1.411       .  A
C622        C630   1.400       .  A
C623        C632   1.408       .  A
C623        C624   1.404       .  A
C624        C625   1.402       .  A
C624        H635   1.084       .  S
C625        C626   1.405       .  A
C625        H636   1.083       .  S
C626        C627   1.409       .  A
C627        C628   1.408   1_554  A
C627        H637   1.084   1_655  S
C628        C629   1.407   1_556  A
C629        H638   1.084   1_554  S
C630        C631   1.407       .  A
C630        H639   1.084       .  S
C631        C632   1.406       .  A
C632        H640   1.082       .  S
C641        C642   1.398       .  A
C641        C646   1.404       .  A
C641        H657   1.084       .  S
C642        C643   1.403       .  A
C642        H658   1.083       .  S
C643        C653   1.403       .  A
C643        C644   1.411       .  A
C644        C650   1.410       .  A
C644        C645   1.413       .  A
C645        C647   1.412       .  A
C645        C646   1.409       .  A
C646        C654   1.401       .  A
C647        C656   1.407       .  A
C647        C648   1.404       .  A
C648        C649   1.401       .  A
C648        H659   1.083       .  S
C649        C650   1.404       .  A
C649        H660   1.084       .  S
C650        C651   1.405       .  A
C651        C652   1.411       .  A
C651        H661   1.083       .  S
C652        C653   1.407       .  A
C653        H662   1.081       .  S
C654        C655   1.409       .  A
C654        H663   1.083       .  S
C655        C656   1.408       .  A
C656        H664   1.083       .  S
C665        C666   1.401       .  A
C665        C670   1.404       .  A
C665        H681   1.083       .  S
C666        C667   1.404       .  A
C666        H682   1.084       .  S
C667        C677   1.405   1_565  A
C667        C668   1.412   1_565  A
C668        C674   1.412       .  A
C668        C669   1.413   1_545  A
C669        C671   1.410       .  A
C669        C670   1.413       .  A
C670        C678   1.408       .  A
C671        C680   1.400       .  A
C671        C672   1.403   1_565  A
C672        C673   1.398       .  A
C672        H683   1.084       .  S
C673        C674   1.402       .  A
C673        H684   1.084       .  S
C674        C675   1.401       .  A
C675        C676   1.401       .  A
C675        H685   1.082       .  S
C676        C677   1.406       .  A
C677        H686   1.084       .  S
C678        C679   1.406       .  A
C678        H687   1.084       .  S
C679        C680   1.407       .  A
C680        H688   1.084       .  S
C689        C690   1.400       .  A
C689        C694   1.404       .  A
C689        H705   1.083       .  S
C690        C691   1.404       .  A
C690        H706   1.083       .  S
C691        C701   1.404       .  A
C691        C692   1.412       .  A
C692        C698   1.411       .  A
C692        C693   1.410       .  A
C693        C695   1.411       .  A
C693        C694   1.412       .  A
C694        C702   1.405       .  A
C695        C704   1.399       .  A
C695        C696   1.402       .  A
C696        C697   1.397       .  A
C696        H707   1.084       .  S
C697        C698   1.403       .  A
C697        H708   1.084       .  S
C698        C699   1.399       .  A
C699        C700   1.406       .  A
C699        H709   1.084       .  S
C700        C701   1.406       .  A
C701        H710   1.084       .  S
C702        C703   1.405       .  A
C702        H711   1.084       .  S
C703        C704   1.404       .  A
C704        H712   1.084       .  S
C713        C714   1.402   1_455  A
C713        C718   1.404       .  A
C713        H729   1.083   1_455  S
C714        C715   1.405       .  A
C714        H730   1.083       .  S
C715        C725   1.408       .  A
C715        C716   1.413   1_655  A
C716        C722   1.410       .  A
C716        C717   1.411       .  A
C717        C719   1.412       .  A
C717        C718   1.413       .  A
C718        C726   1.407       .  A
C719        C728   1.397       .  A
C719        C720   1.402       .  A
C720        C721   1.396       .  A
C720        H731   1.084       .  S
C721        C722   1.403       .  A
C721        H732   1.084       .  S
C722        C723   1.398       .  A
C723        C724   1.406   1_455  A
C723        H733   1.084       .  S
C724        C725   1.407       .  A
C725        H734   1.084       .  S
C726        C727   1.404       .  A
C726        H735   1.083       .  S
C727        C728   1.403       .  A
C728        H736   1.085       .  S
C737        C738   1.397       .  A
C737        C742   1.403       .  A
C737        H753   1.084       .  S
C738        C739   1.403       .  A
C738        H754   1.084       .  S
C739        C749   1.400       .  A
C739        C740   1.411       .  A
C740        C746   1.411       .  A
C740        C741   1.411       .  A
C741        C743   1.412       .  A
C741        C742   1.411       .  A
C742        C750   1.399       .  A
C743        C752   1.405       .  A
C743        C744   1.404       .  A
C744        C745   1.400       .  A
C744        H755   1.084       .  S
C745        C746   1.404       .  A
C745        H756   1.083       .  S
C746        C747   1.404       .  A
C747        C748   1.407       .  A
C747        H757   1.084       .  S
C748        C749   1.405       .  A
C749        H758   1.084       .  S
C750        C751   1.406       .  A
C750        H759   1.084       .  S
C751        C752   1.407       .  A
C752        H760   1.084       .  S
C761        C762   1.396       .  A
C761        C766   1.403       .  A
C761        H777   1.084       .  S
C762        C763   1.402       .  A
C762        H778   1.084       .  S
C763        C773   1.399       .  A
C763        C764   1.412       .  A
C764        C770   1.411       .  A
C764        C765   1.411       .  A
C765        C767   1.412       .  A
C765        C766   1.410       .  A
C766        C774   1.398       .  A
C767        C776   1.405       .  A
C767        C768   1.404       .  A
C768        C769   1.400       .  A
C768        H779   1.083       .  S
C769        C770   1.404       .  A
C769        H780   1.084       .  S
C770        C771   1.403       .  A
C771        C772   1.408       .  A
C771        H781   1.083       .  S
C772        C773   1.403       .  A
C773        H782   1.084       .  S
C774        C775   1.407       .  A
C774        H783   1.083       .  S
C775        C776   1.408       .  A
C776        H784   1.083       .  S
C785        C786   1.398       .  A
C785        C790   1.403       .  A
C785        H801   1.084       .  S
C786        C787   1.403       .  A
C786        H802   1.084       .  S
C787        C797   1.401       .  A
C787        C788   1.411       .  A
C788        C794   1.412       .  A
C788        C789   1.411       .  A
C789        C791   1.412       .  A
C789        C790   1.412       .  A
C790        C798   1.401       .  A
C791        C800   1.404       .  A
C791        C792   1.404       .  A
C792        C793   1.400       .  A
C792        H803   1.084       .  S
C793        C794   1.404       .  A
C793        H804   1.083       .  S
C794        C795   1.404       .  A
C795        C796   1.407       .  A
C795        H805   1.084       .  S
C796        C797   1.407       .  A
C797        H806   1.084       .  S
C798        C799   1.404       .  A
C798        H807   1.084       .  S
C799        C800   1.405       .  A
C800        H808   1.084       .  S
C809        C810   1.400       .  A
C809        C814   1.404       .  A
C809        H825   1.083       .  S
C810        C811   1.403       .  A
C810        H826   1.084       .  S
C811        C821   1.404       .  A
C811        C812   1.413       .  A
C812        C818   1.411       .  A
C812        C813   1.412       .  A
C813        C815   1.412       .  A
C813        C814   1.411       .  A
C814        C822   1.404       .  A
C815        C824   1.404       .  A
C815        C816   1.403       .  A
C816        C817   1.399       .  A
C816        H827   1.083       .  S
C817        C818   1.403       .  A
C817        H828   1.084       .  S
C818        C819   1.402       .  A
C819        C820   1.402       .  A
C819        H829   1.083       .  S
C820        C821   1.405       .  A
C821        H830   1.084       .  S
C822        C823   1.408       .  A
C822        H831   1.084       .  S
C823        C824   1.406       .  A
C824        H832   1.084       .  S
C833        C834   1.395   1_565  A
C833        C838   1.402       .  A
C833        H849   1.084       .  S
C834        C835   1.401       .  A
C834        H850   1.084       .  S
C835        C845   1.396       .  A
C835        C836   1.411       .  A
C836        C842   1.413       .  A
C836        C837   1.413   1_545  A
C837        C839   1.413       .  A
C837        C838   1.411       .  A
C838        C846   1.397       .  A
C839        C848   1.412   1_556  A
C839        C840   1.406   1_565  A
C840        C841   1.405       .  A
C840        H851   1.083   1_556  S
C841        C842   1.406       .  A
C841        H852   1.083       .  S
C842        C843   1.411       .  A
C843        C844   1.407       .  A
C843        H853   1.084       .  S
C844        C845   1.404       .  A
C845        H854   1.085       .  S
C846        C847   1.404       .  A
C846        H855   1.085       .  S
C847        C848   1.408   1_556  A
C848        H856   1.084       .  S
C857        C858   1.401       .  A
C857        C862   1.405       .  A
C857        H873   1.083       .  S
C858        C859   1.403       .  A
C858        H874   1.083       .  S
C859        C869   1.406       .  A
C859        C860   1.414       .  A
C860        C866   1.411       .  A
C860        C861   1.412       .  A
C861        C863   1.412       .  A
C861        C862   1.411       .  A
C862        C870   1.404       .  A
C863        C872   1.402       .  A
C863        C864   1.403       .  A
C864        C865   1.398       .  A
C864        H875   1.084       .  S
C865        C866   1.402       .  A
C865        H876   1.084       .  S
C866        C867   1.399       .  A
C867        C868   1.401       .  A
C867        H877   1.084       .  S
C868        C869   1.403       .  A
C869        H878   1.084       .  S
C870        C871   1.408       .  A
C870        H879   1.084       .  S
C871        C872   1.405       .  A
C872        H880   1.084       .  S
C881        C882   1.399       .  A
C881        C886   1.404       .  A
C881        H897   1.083       .  S
C882        C883   1.403       .  A
C882        H898   1.084       .  S
C883        C893   1.403       .  A
C883        C884   1.412       .  A
C884        C890   1.414       .  A
C884        C885   1.414       .  A
C885        C887   1.410       .  A
C885        C886   1.412       .  A
C886        C894   1.406       .  A
C887        C896   1.406       .  A
C887        C888   1.405       .  A
C888        C889   1.401       .  A
C888        H899   1.083       .  S
C889        C890   1.403       .  A
C889        H900   1.083       .  S
C890        C891   1.407       .  A
C891        C892   1.403       .  A
C891        H901   1.084       .  S
C892        C893   1.402       .  A
C893        H902   1.085       .  S
C894        C895   1.408       .  A
C894        H903   1.083       .  S
C895        C896   1.412       .  A
C896        H904   1.082       .  S
C905        C906   1.398       .  A
C905        C910   1.404       .  A
C905        H921   1.084       .  S
C906        C907   1.403       .  A
C906        H922   1.084       .  S
C907        C917   1.402       .  A
C907        C908   1.412       .  A
C908        C914   1.410       .  A
C908        C909   1.413       .  A
C909        C911   1.412       .  A
C909        C910   1.409       .  A
C910        C918   1.401       .  A
C911        C920   1.408       .  A
C911        C912   1.404       .  A
C912        C913   1.401       .  A
C912        H923   1.083       .  S
C913        C914   1.404       .  A
C913        H924   1.084       .  S
C914        C915   1.404       .  A
C915        C916   1.408       .  A
C915        H925   1.084       .  S
C916        C917   1.404       .  A
C917        H926   1.083       .  S
C918        C919   1.410       .  A
C918        H927   1.082       .  S
C919        C920   1.408       .  A
C920        H928   1.083       .  S
C929        C930   1.403       .  A
C929        C934   1.405       .  A
C929        H945   1.083       .  S
C930        C931   1.405       .  A
C930        H946   1.083       .  S
C931        C941   1.410       .  A
C931        C932   1.413       .  A
C932        C938   1.411       .  A
C932        C933   1.415       .  A
C933        C935   1.411       .  A
C933        C934   1.412       .  A
C934        C942   1.410       .  A
C935        C944   1.402       .  A
C935        C936   1.403       .  A
C936        C937   1.398       .  A
C936        H947   1.084       .  S
C937        C938   1.403       .  A
C937        H948   1.084       .  S
C938        C939   1.401       .  A
C939        C940   1.407       .  A
C939        H949   1.084       .  S
C940        C941   1.406       .  A
C941        H950   1.084       .  S
C942        C943   1.408       .  A
C942        H951   1.084       .  S
C943        C944   1.407       .  A
C944        H952   1.084       .  S
C953        C954   1.400       .  A
C953        C958   1.404       .  A
C953        H969   1.084       .  S
C954        C955   1.404       .  A
C954        H970   1.084       .  S
C955        C965   1.406       .  A
C955        C956   1.413       .  A
C956        C962   1.411       .  A
C956        C957   1.412       .  A
C957        C959   1.412       .  A
C957        C958   1.411       .  A
C958        C966   1.403       .  A
C959        C968   1.402       .  A
C959        C960   1.403       .  A
C960        C961   1.398       .  A
C960        H971   1.084       .  S
C961        C962   1.404       .  A
C961        H972   1.084       .  S
C962        C963   1.401       .  A
C963        C964   1.406       .  A
C963        H973   1.084       .  S
C964        C965   1.406       .  A
C965        H974   1.084       .  S
C966        C967   1.407       .  A
C966        H975   1.083       .  S
C967        C968   1.404       .  A
C968        H976   1.085       .  S
C977        C978   1.403       .  A
C977        C982   1.405       .  A
C977        H993   1.083       .  S
C978        C979   1.405       .  A
C978        H994   1.083       .  S
C979        C989   1.407       .  A
C979        C980   1.412       .  A
C980        C986   1.413       .  A
C980        C981   1.412       .  A
C981        C983   1.409       .  A
C981        C982   1.412       .  A
C982        C990   1.410       .  A
C983        C992   1.396       .  A
C983        C984   1.402       .  A
C984        C985   1.395       .  A
C984        H995   1.084       .  S
C985        C986   1.401       .  A
C985        H996   1.084       .  S
C986        C987   1.397       .  A
C987        C988   1.399       .  A
C987        H997   1.085       .  S
C988        C989   1.405       .  A
C989        H998   1.084       .  S
C990        C991   1.410       .  A
C990        H999   1.083       .  S
C991        C992   1.407       .  A
C992       H1000   1.082       .  S
C1001      C1002   1.400       .  A
C1001      C1006   1.404       .  A
C1001      H1017   1.084       .  S
C1002      C1003   1.404       .  A
C1002      H1018   1.084       .  S
C1003      C1013   1.404       .  A
C1003      C1004   1.411       .  A
C1004      C1010   1.411       .  A
C1004      C1005   1.412       .  A
C1005      C1007   1.411       .  A
C1005      C1006   1.412       .  A
C1006      C1014   1.405       .  A
C1007      C1016   1.402       .  A
C1007      C1008   1.403       .  A
C1008      C1009   1.398       .  A
C1008      H1019   1.084       .  S
C1009      C1010   1.403       .  A
C1009      H1020   1.084       .  S
C1010      C1011   1.402       .  A
C1011      C1012   1.406       .  A
C1011      H1021   1.084       .  S
C1012      C1013   1.407       .  A
C1013      H1022   1.084       .  S
C1014      C1015   1.407       .  A
C1014      H1023   1.084       .  S
C1015      C1016   1.406       .  A
C1016      H1024   1.084       .  S
C1025      C1026   1.401       .  A
C1025      C1030   1.404       .  A
C1025      H1041   1.084       .  S
C1026      C1027   1.404       .  A
C1026      H1042   1.083       .  S
C1027      C1037   1.408       .  A
C1027      C1028   1.412       .  A
C1028      C1034   1.409       .  A
C1028      C1029   1.413       .  A
C1029      C1031   1.413       .  A
C1029      C1030   1.410       .  A
C1030      C1038   1.403       .  A
C1031      C1040   1.404       .  A
C1031      C1032   1.403       .  A
C1032      C1033   1.399       .  A
C1032      H1043   1.084       .  S
C1033      C1034   1.404       .  A
C1033      H1044   1.084       .  S
C1034      C1035   1.402       .  A
C1035      C1036   1.410       .  A
C1035      H1045   1.082       .  S
C1036      C1037   1.409       .  A
C1037      H1046   1.083       .  S
C1038      C1039   1.408       .  A
C1038      H1047   1.084       .  S
C1039      C1040   1.404       .  A
C1040      H1048   1.084       .  S
C1049      C1050   1.401       .  A
C1049      C1054   1.404       .  A
C1049      H1065   1.083       .  S
C1050      C1051   1.404       .  A
C1050      H1066   1.084       .  S
C1051      C1061   1.405       .  A
C1051      C1052   1.411       .  A
C1052      C1058   1.413       .  A
C1052      C1053   1.413       .  A
C1053      C1055   1.411       .  A
C1053      C1054   1.413       .  A
C1054      C1062   1.408       .  A
C1055      C1064   1.402       .  A
C1055      C1056   1.404       .  A
C1056      C1057   1.398       .  A
C1056      H1067   1.084   1_655  S
C1057      C1058   1.403       .  A
C1057      H1068   1.084       .  S
C1058      C1059   1.403       .  A
C1059      C1060   1.402       .  A
C1059      H1069   1.083       .  S
C1060      C1061   1.407       .  A
C1061      H1070   1.084       .  S
C1062      C1063   1.406       .  A
C1062      H1071   1.084       .  S
C1063      C1064   1.407       .  A
C1064      H1072   1.084   1_655  S
C1073      C1074   1.397       .  A
C1073      C1078   1.403       .  A
C1073      H1089   1.084       .  S
C1074      C1075   1.403       .  A
C1074      H1090   1.084       .  S
C1075      C1085   1.400       .  A
C1075      C1076   1.411       .  A
C1076      C1082   1.413       .  A
C1076      C1077   1.412       .  A
C1077      C1079   1.411       .  A
C1077      C1078   1.412       .  A
C1078      C1086   1.401       .  A
C1079      C1088   1.404       .  A
C1079      C1080   1.404       .  A
C1080      C1081   1.400       .  A
C1080      H1091   1.083       .  S
C1081      C1082   1.404       .  A
C1081      H1092   1.083       .  S
C1082      C1083   1.406       .  A
C1083      C1084   1.406       .  A
C1083      H1093   1.084       .  S
C1084      C1085   1.405       .  A
C1085      H1094   1.084       .  S
C1086      C1087   1.405       .  A
C1086      H1095   1.084       .  S
C1087      C1088   1.408       .  A
C1088      H1096   1.084       .  S
C1097      C1098   1.400       .  A
C1097      C1102   1.404       .  A
C1097      H1113   1.083       .  S
C1098      C1099   1.403       .  A
C1098      H1114   1.084       .  S
C1099      C1109   1.405       .  A
C1099      C1100   1.413       .  A
C1100      C1106   1.411       .  A
C1100      C1101   1.412       .  A
C1101      C1103   1.412       .  A
C1101      C1102   1.411       .  A
C1102      C1110   1.404       .  A
C1103      C1112   1.404       .  A
C1103      C1104   1.403       .  A
C1104      C1105   1.399       .  A
C1104      H1115   1.084       .  S
C1105      C1106   1.403       .  A
C1105      H1116   1.083       .  S
C1106      C1107   1.402       .  A
C1107      C1108   1.403       .  A
C1107      H1117   1.083       .  S
C1108      C1109   1.404       .  A
C1109      H1118   1.085       .  S
C1110      C1111   1.406       .  A
C1110      H1119   1.084       .  S
C1111      C1112   1.405       .  A
C1112      H1120   1.085       .  S
C1121      C1122   1.401       .  A
C1121      C1126   1.405       .  A
C1121      H1137   1.083       .  S
C1122      C1123   1.404       .  A
C1122      H1138   1.084       .  S
C1123      C1133   1.405       .  A
C1123      C1124   1.411       .  A
C1124      C1130   1.413       .  A
C1124      C1125   1.412       .  A
C1125      C1127   1.409       .  A
C1125      C1126   1.412       .  A
C1126      C1134   1.408       .  A
C1127      C1136   1.399       .  A
C1127      C1128   1.403       .  A
C1128      C1129   1.397       .  A
C1128      H1139   1.084       .  S
C1129      C1130   1.402       .  A
C1129      H1140   1.084       .  S
C1130      C1131   1.401       .  A
C1131      C1132   1.401       .  A
C1131      H1141   1.085       .  S
C1132      C1133   1.406       .  A
C1133      H1142   1.083       .  S
C1134      C1135   1.409       .  A
C1134      H1143   1.083       .  S
C1135      C1136   1.408       .  A
C1136      H1144   1.082       .  S
C1145      C1146   1.397       .  A
C1145      C1150   1.403       .  A
C1145      H1161   1.084       .  S
C1146      C1147   1.403       .  A
C1146      H1162   1.084       .  S
C1147      C1157   1.399       .  A
C1147      C1148   1.411       .  A
C1148      C1154   1.412       .  A
C1148      C1149   1.410       .  A
C1149      C1151   1.412       .  A
C1149      C1150   1.412       .  A
C1150      C1158   1.400       .  A
C1151      C1160   1.404       .  A
C1151      C1152   1.404       .  A
C1152      C1153   1.400       .  A
C1152      H1163   1.083       .  S
C1153      C1154   1.404       .  A
C1153      H1164   1.084       .  S
C1154      C1155   1.404       .  A
C1155      C1156   1.406       .  A
C1155      H1165   1.084       .  S
C1156      C1157   1.405       .  A
C1157      H1166   1.084       .  S
C1158      C1159   1.404       .  A
C1158      H1167   1.085       .  S
C1159      C1160   1.404       .  A
C1160      H1168   1.084       .  S
C1169      C1170   1.400       .  A
C1169      C1174   1.404       .  A
C1169      H1185   1.084       .  S
C1170      C1171   1.403       .  A
C1170      H1186   1.084       .  S
C1171      C1181   1.405       .  A
C1171      C1172   1.414       .  A
C1172      C1178   1.411       .  A
C1172      C1173   1.412       .  A
C1173      C1175   1.412       .  A
C1173      C1174   1.410       .  A
C1174      C1182   1.403       .  A
C1175      C1184   1.403       .  A
C1175      C1176   1.403       .  A
C1176      C1177   1.398       .  A
C1176      H1187   1.084       .  S
C1177      C1178   1.403       .  A
C1177      H1188   1.084       .  S
C1178      C1179   1.400       .  A
C1179      C1180   1.402       .  A
C1179      H1189   1.085       .  S
C1180      C1181   1.401       .  A
C1181      H1190   1.084       .  S
C1182      C1183   1.408       .  A
C1182      H1191   1.083       .  S
C1183      C1184   1.406       .  A
C1184      H1192   1.083       .  S
C1193      C1194   1.402       .  A
C1193      C1198   1.405       .  A
C1193      H1209   1.083       .  S
C1194      C1195   1.404       .  A
C1194      H1210   1.083       .  S
C1195      C1205   1.407       .  A
C1195      C1196   1.412       .  A
C1196      C1202   1.412       .  A
C1196      C1197   1.412       .  A
C1197      C1199   1.410       .  A
C1197      C1198   1.413       .  A
C1198      C1206   1.408       .  A
C1199      C1208   1.399       .  A
C1199      C1200   1.403       .  A
C1200      C1201   1.396       .  A
C1200      H1211   1.084       .  S
C1201      C1202   1.402       .  A
C1201      H1212   1.084       .  S
C1202      C1203   1.399       .  A
C1203      C1204   1.402       .  A
C1203      H1213   1.085       .  S
C1204      C1205   1.404       .  A
C1205      H1214   1.082       .  S
C1206      C1207   1.407       .  A
C1206      H1215   1.084       .  S
C1207      C1208   1.407       .  A
C1208      H1216   1.084   1_556  S
