geometry optimzed in LAMMPS
_audit_creation_date              2020-11-30 
_audit_creation_method            'lammps2cif' 
_symmetry_space_group_name_H-M    'P1' 
_symmetry_Int_Tables_number       1 
_symmetry_cell_setting            triclinic 
loop_ 
_symmetry_equiv_pos_as_xyz 
  x,y,z 
_cell_length_a                    38.0324885 
_cell_length_b                    38.47714296046637 
_cell_length_c                    38.981214281959375 
_cell_angle_alpha                 90.03565590312886 
_cell_angle_beta                  89.58591858513311 
_cell_angle_gamma                 89.68371516162921 
loop_ 
_atom_site_label 
_atom_site_type_symbol 
_atom_site_fract_x 
_atom_site_fract_y 
_atom_site_fract_z 
_atom_site_charge 
C1          C  0.44181574  0.43076252  0.09142518     0.42800
N2          N  0.44962442  0.46285206  0.04699562     0.01700
C3          C  0.58062275  0.44627992  0.42478093    -0.06200
H4          H  0.62153256  0.46598693  0.05436894     0.07200
C5          C  0.56773330  0.58231643  0.04799884    -0.06500
Co6        Co  0.50437718  0.43327044  0.00022508     0.74200
N7          N  0.57324063  0.45651053  0.02724842    -0.25700
Co8        Co  0.57080169  0.49299215  0.48879037     0.74100
C9          C  0.60141845  0.56831444  0.05868080     0.42900
N10         N  0.47872024  0.56296593  0.03939405     0.01300
N11         N  0.57837140  0.53275371  0.02377462     0.01400
N12         N  0.53751107  0.40675356  0.43293178    -0.46500
H13         H  0.48342687  0.39117946  0.07270737     0.07200
N14         N  0.54819438  0.43329160  0.03107562     0.01700
N15         N  0.56556340  0.52932164  0.45066985     0.01500
C16         C  0.57270359  0.55774214  0.40428575     0.43100
N17         N  0.45370184  0.53979510  0.04403459    -0.25100
C18         C  0.44661606  0.41160675  0.44886007    -0.06100
N19         N  0.43031485  0.45970198  0.07519928    -0.46200
N20         N  0.58406978  0.53000059  0.42202264    -0.46500
C21         C  0.41241495  0.42557376  0.43898706     0.42800
N22         N  0.53713979  0.43082081  0.45727311     0.01700
N23         N  0.44174400  0.53791328  0.47022076    -0.25200
N24         N  0.47235179  0.43713930  0.04323015    -0.25700
N25         N  0.46718338  0.56072954  0.46607600     0.01400
H26         H  0.39259086  0.53019853  0.44383057     0.07200
H27         H  0.53169601  0.59909381  0.42070682     0.07300
N28         N  0.56243968  0.45377739  0.45335155    -0.25700
N29         N  0.55549306  0.55850983  0.02630522    -0.25300
N30         N  0.43681189  0.46108795  0.47341736     0.01700
C31         C  0.58425492  0.42220181  0.07104227     0.43100
C32         C  0.43534276  0.54811631  0.07221793    -0.06600
N33         N  0.54308577  0.55534482  0.45334638    -0.25300
H34         H  0.55530234  0.60689314  0.05422812     0.07300
N35         N  0.55414627  0.41166713  0.05662084    -0.46500
H36         H  0.41209695  0.53494781  0.08149367     0.07300
C37         C  0.43049623  0.57365961  0.42725640     0.43000
C38         C  0.46928404  0.41543836  0.06986254    -0.06100
Co39       Co  0.44456211  0.50052020  0.00881451     0.73800
N40         N  0.47786307  0.58796413  0.06275139    -0.46300
C41         C  0.56364261  0.41562558  0.41104270     0.43200
N42         N  0.40789551  0.45606358  0.45547338    -0.46200
Co43       Co  0.51110691  0.56026652  0.49641569     0.73900
C44         C  0.54592344  0.57516014  0.42526878    -0.06600
C45         C  0.59749572  0.45144448  0.05137737    -0.06100
N46         N  0.45969349  0.43537865  0.47020075    -0.25700
N47         N  0.60657451  0.53758751  0.04284807    -0.46400
H48         H  0.60359899  0.45987849  0.41547272     0.07200
C49         C  0.41696450  0.54419693  0.44669231    -0.06500
Cl50       Cl  0.50765642  0.49674809  0.99853121    -0.49500
C51         C  0.45167671  0.57966598  0.08475324     0.43000
H52         H  0.45857756  0.38676450  0.44279210     0.07200
N53         N  0.46124146  0.58299421  0.44102417    -0.46300
C54         C  0.57577979  0.93420035  0.08997473     0.42800
N55         N  0.55771367  0.96406214  0.04660630     0.01700
C56         C  0.40346966  0.06132853  0.03604412    -0.06200
H57         H  0.38336617  0.93223650  0.03376729     0.07200
C58         C  0.45455963  0.93227649  0.41385579    -0.06500
Co59       Co  0.49216265  0.00430412  0.06322613     0.74200
N60         N  0.43064128  0.96271063  0.03884395    -0.25700
Co61       Co  0.43193838  0.99677051  0.99658882     0.74100
C62         C  0.42025718  0.91804177  0.42308277     0.42900
N63         N  0.53989153  0.95502018  0.44393869     0.01300
N64         N  0.43550885  0.95612991  0.46080241     0.01400
N65         N  0.44303468  0.06577832  0.07871622    -0.46500
H66         H  0.52721192  0.95144719  0.12196261     0.07200
N67         N  0.45339214  0.96602741  0.06412424     0.01700
N68         N  0.43414858  0.03130161  0.45508190     0.01500
C69         C  0.41804684  0.06631974  0.41488874     0.43100
N70         N  0.56245403  0.95653501  0.46947527    -0.25100
C71         C  0.53950651  0.06630986  0.08484665    -0.06100
N72         N  0.58412587  0.94481141  0.05789538    -0.46200
N73         N  0.40816807  0.05196594  0.44506733    -0.46500
C74         C  0.57457540  0.07841021  0.07522134     0.42800
N75         N  0.45226212  0.04124386  0.05646852     0.01700
N76         N  0.56330130  0.03118494  0.46329430    -0.25200
N77         N  0.53232880  0.96758444  0.06959591    -0.25700
N78         N  0.54073305  0.03046455  0.43775621     0.01400
H79         H  0.61350676  0.05491186  0.46991761     0.07200
H80         H  0.46804849  0.05383544  0.38314780     0.07300
N81         N  0.42920831  0.03778777  0.03153860    -0.25700
N82         N  0.46163403  0.95557298  0.43833145    -0.25300
N83         N  0.55816884  0.03892914  0.03967043     0.01700
C84         C  0.41662953  0.92810596  0.08285499     0.43100
C85         C  0.58724548  0.93199229  0.46446527    -0.06600
N86         N  0.46054389  0.03029663  0.43284319    -0.25300
H87         H  0.46962941  0.92913685  0.39043692     0.07300
N88         N  0.44582202  0.94606806  0.09081654    -0.46500
H89         H  0.61080350  0.92887102  0.47955825     0.07300
C90         C  0.58145513  0.06546094  0.42103791     0.43000
C91         C  0.54128939  0.94978446  0.09787650    -0.06100
Co92       Co  0.56059282  0.99750858  0.00473363     0.73800
N93         N  0.54845798  0.93089822  0.42107180    -0.46300
C94         C  0.41273692  0.07998266  0.06728694     0.43200
N95         N  0.58459880  0.05979839  0.04736741    -0.46200
Co96       Co  0.50084354  0.99302880  0.43783455     0.73900
C97         C  0.45281587  0.05161302  0.40656253    -0.06600
C98         C  0.40656885  0.93891543  0.04817615    -0.06100
N99         N  0.53170091  0.04176090  0.06165054    -0.25700
N100        N  0.40985839  0.93467699  0.45213740    -0.46400
H101        H  0.37977654  0.06318761  0.02095803     0.07200
C102        C  0.58977375  0.05228352  0.45510390    -0.06500
Cl103      Cl  0.49636224  0.99791143  0.00058695    -0.49500
C104        C  0.57760305  0.91451855  0.43252478     0.43000
H105        H  0.52452582  0.07181947  0.10792290     0.07200
N106        N  0.55101943  0.05009463  0.41154086    -0.46300
C107        C  0.92244037  0.42481039  0.08222666     0.42800
N108        N  0.95889671  0.44055080  0.04249218     0.01700
C109        C  0.06231437  0.58904677  0.03686473    -0.06200
H110        H  0.93540256  0.61700351  0.02842886     0.07200
C111        C  0.93328686  0.54524638  0.41219501    -0.06500
Co112      Co  0.99903339  0.50460653  0.06202899     0.74200
N113        N  0.96141536  0.56755046  0.03552297    -0.25700
Co114      Co  0.99810102  0.56434510  0.99511162     0.74100
C115        C  0.91950727  0.57936400  0.42264602     0.42900
N116        N  0.95600272  0.45860501  0.43969073     0.01300
N117        N  0.95865890  0.56248496  0.45855396     0.01400
N118        N  0.06201079  0.55079451  0.08080988    -0.46500
H119        H  0.93577674  0.47280022  0.11503987     0.07200
N120        N  0.96174143  0.54520488  0.06125629     0.01700
N121        N  0.03471827  0.56129711  0.45456388     0.01500
C122        C  0.06947580  0.57689580  0.41337154     0.43100
N123        N  0.95668532  0.43601211  0.46513337    -0.25100
C124        C  0.05917114  0.45532866  0.08659107    -0.06100
N125        N  0.93702822  0.41546181  0.05182302    -0.46200
N126        N  0.05570436  0.58671109  0.44403401    -0.46500
C127        C  0.07236920  0.42090286  0.07648595     0.42800
N128        N  0.03815433  0.54266915  0.05750878     0.01700
N129        N  0.03287115  0.43433602  0.46184354    -0.25200
N130        N  0.96034575  0.46587826  0.06539598    -0.25700
N131        N  0.03228479  0.45708005  0.43647134     0.01400
H132        H  0.06006843  0.38535460  0.46818337     0.07200
H133        H  0.05729731  0.52722686  0.38272961     0.07300
N134        N  0.03754997  0.56502701  0.03182182    -0.25700
N135        N  0.95743903  0.53708480  0.43581987    -0.25300
N136        N  0.03512173  0.43902286  0.03918930     0.01700
C137        C  0.92544787  0.58542374  0.07757100     0.43100
C138        C  0.93308843  0.41106383  0.45892857    -0.06600
N139        N  0.03325957  0.53549664  0.43225588    -0.25300
H140        H  0.92821360  0.53041352  0.38920606     0.07300
N141        N  0.94142224  0.55547761  0.08726840    -0.46500
H142        H  0.92967293  0.38789989  0.47425659     0.07300
C143        C  0.06966811  0.41824352  0.41960512     0.43000
C144        C  0.93825901  0.45823611  0.09139933    -0.06100
Co145      Co  0.99588164  0.43724473  0.00225855     0.73800
N146        N  0.93345500  0.44972664  0.41544464    -0.46300
C147        C  0.07892595  0.57940156  0.06917302     0.43200
N148        N  0.05617847  0.41275282  0.04692254    -0.46200
Co149      Co  0.99471981  0.49698305  0.43578386     0.73900
C150        C  0.05487577  0.54260624  0.40585504    -0.06600
C151        C  0.93899887  0.59356601  0.04332473    -0.06100
N152        N  0.03603369  0.46419587  0.06221171    -0.25700
N153        N  0.93690832  0.58831485  0.45131421    -0.46400
H154        H  0.06589359  0.61207285  0.02137719     0.07200
C155        C  0.05591951  0.40892889  0.45363063    -0.06500
Cl156      Cl  0.99689624  0.50077914  0.99882036    -0.49500
C157        C  0.91750891  0.42011699  0.42580974     0.43000
H158        H  0.06329113  0.46951895  0.11016485     0.07200
N159        N  0.05318482  0.44803028  0.41054106    -0.46300
C160        C  0.26534482  0.25970648  0.21934743     0.45800
H161        H  0.27251979  0.25943169  0.19190266    -0.03200
C162        C  0.25027190  0.25692397  0.28398833     0.45900
H163        H  0.24360749  0.25577227  0.31175986    -0.03200
C164        C  0.28777802  0.28435897  0.24140484    -0.16900
C165        C  0.22716134  0.27131345  0.22696890    -0.16600
C166        C  0.27112105  0.22343682  0.23501677    -0.17000
C167        C  0.27987663  0.28262192  0.27585915    -0.17000
C168        C  0.21935877  0.26974896  0.26176759    -0.16600
C169        C  0.26358017  0.22174503  0.26965197    -0.16900
C170        C  0.75198322  0.24281934  0.21463265     0.45800
H171        H  0.75606367  0.23996583  0.18653507    -0.03200
C172        C  0.74248802  0.25041872  0.27995197     0.45900
H173        H  0.73881918  0.25424235  0.30793806    -0.03200
C174        C  0.72238599  0.26859407  0.22362910    -0.16900
C175        C  0.73947627  0.20887044  0.23262314    -0.16600
C176        C  0.78489524  0.25747090  0.23331261    -0.17000
C177        C  0.71732818  0.27293546  0.25818493    -0.17000
C178        C  0.73627753  0.21270998  0.26793591    -0.16600
C179        C  0.77958813  0.26089764  0.26825274    -0.16900
C180        C  0.26163288  0.74117683  0.21685026     0.45800
H181        H  0.26655123  0.74380918  0.18881228    -0.03200
C182        C  0.25061628  0.73525151  0.28218523     0.45900
H183        H  0.24421333  0.73214032  0.30957179    -0.03200
C184        C  0.28429428  0.71299415  0.23343881    -0.16900
C185        C  0.27047027  0.77422239  0.23723836    -0.16600
C186        C  0.22374787  0.73081225  0.22547290    -0.17000
C187        C  0.27880986  0.70965184  0.26816776    -0.17000
C188        C  0.26547679  0.77139916  0.27244064    -0.16600
C189        C  0.21757538  0.72831734  0.26018994    -0.16900
C190        C  0.74704681  0.74441979  0.21624276     0.45800
H191        H  0.75311645  0.74376066  0.18849874    -0.03200
C192        C  0.73605170  0.74557391  0.28172988     0.45900
H193        H  0.73174300  0.74641029  0.30987391    -0.03200
C194        C  0.71975468  0.71756509  0.22828277    -0.16900
C195        C  0.78003402  0.73485470  0.23711060    -0.16600
C196        C  0.73192684  0.77965431  0.22875857    -0.17000
C197        C  0.71420572  0.71780858  0.26327383    -0.17000
C198        C  0.77439181  0.73618059  0.27214489    -0.16600
C199        C  0.72631920  0.77998787  0.26388423    -0.16900
C200        C  0.20221780  0.71246817  0.19919103    -0.11600
C201        C  0.16662193  0.72046951  0.19311009     0.03900
C202        C  0.14694853  0.69964885  0.17077240    -0.12100
C203        C  0.16241096  0.67104289  0.15382258     0.18700
C204        C  0.19855017  0.66452569  0.15822316    -0.09200
C205        C  0.21793759  0.68509668  0.18063198    -0.02100
H206        H  0.11944279  0.70568492  0.16669683     0.05300
C207        C  0.14059853  0.64788261  0.13220082     0.20700
H208        H  0.24535790  0.67886418  0.18417496     0.10400
C209        C  0.14735633  0.64553771  0.09681669    -0.15500
C210        C  0.12835814  0.62272162  0.07601636     0.03400
C211        C  0.10150843  0.60202011  0.09048507    -0.10800
C212        C  0.09498474  0.60421317  0.12595527    -0.00900
C213        C  0.11413747  0.62690421  0.14673834    -0.06000
H214        H  0.16794078  0.66119136  0.08540928     0.06400
H215        H  0.07450047  0.58859019  0.13756321     0.09800
Br216      Br  0.22258902  0.62682513  0.13562312    -0.05700
Br217      Br  0.14444717  0.76050589  0.21310381    -0.02700
Br218      Br  0.14211715  0.61932317  0.02862866     0.00200
Br219      Br  0.10385493  0.62756204  0.19502955    -0.04200
C220        C  0.08688697  0.60128285  0.38888568    -0.11600
C221        C  0.07558061  0.60529832  0.35455161     0.03900
C222        C  0.09310225  0.62823336  0.33235781    -0.12100
C223        C  0.12210348  0.64753430  0.34335237     0.18700
C224        C  0.13278973  0.64436143  0.37784746    -0.09200
C225        C  0.11506347  0.62166625  0.40025495    -0.02100
H226        H  0.08422919  0.63079833  0.30612420     0.05300
C227        C  0.14200336  0.66919256  0.31808465     0.20700
H228        H  0.12392930  0.61928193  0.42650672     0.10400
C229        C  0.14335596  0.70552321  0.32190137    -0.15500
C230        C  0.16566983  0.72569369  0.30110574     0.03400
C231        C  0.18698369  0.70969530  0.27588379    -0.10800
C232        C  0.18302149  0.67392177  0.26991109    -0.00900
C233        C  0.16110352  0.65366689  0.29088025    -0.06000
H234        H  0.12793492  0.71806494  0.34187995     0.06400
H235        H  0.19953552  0.66102494  0.25102449     0.09800
Br236      Br  0.17267518  0.66897886  0.39511664    -0.05700
Br237      Br  0.03518779  0.58205753  0.33648697    -0.02700
Br238      Br  0.16653390  0.77503509  0.30793297     0.00200
Br239      Br  0.16220600  0.60423392  0.28434056    -0.04200
C240        C  0.08941111  0.39554497  0.39510039    -0.11600
C241        C  0.12066753  0.37810349  0.40435408     0.03900
C242        C  0.13866043  0.35733334  0.38022943    -0.12100
C243        C  0.12593478  0.35316299  0.34673324     0.18700
C244        C  0.09423176  0.36982275  0.33771508    -0.09200
C245        C  0.07659509  0.39115464  0.36159968    -0.02100
H246        H  0.16298403  0.34465061  0.38752958     0.05300
C247        C  0.14634616  0.33148169  0.32179700     0.20700
H248        H  0.05232144  0.40382871  0.35414685     0.10400
C249        C  0.14822308  0.29531809  0.32644821    -0.15500
C250        C  0.16984077  0.27450580  0.30539495     0.03400
C251        C  0.19045097  0.28974308  0.27930620    -0.10800
C252        C  0.18734696  0.32574421  0.27375707    -0.00900
C253        C  0.16567699  0.34654875  0.29466304    -0.06000
H254        H  0.13323515  0.28329889  0.34693340     0.06400
H255        H  0.20305044  0.33803480  0.25403223     0.09800
Br256      Br  0.07336116  0.36297319  0.29356247    -0.05700
Br257      Br  0.14106044  0.38334801  0.44889603    -0.02700
Br258      Br  0.17036878  0.22527109  0.31303810     0.00200
Br259      Br  0.16556083  0.39575124  0.28675937    -0.04200
C260        C  0.09278512  0.39602080  0.09787765    -0.11600
C261        C  0.09199455  0.35948968  0.09266438     0.03900
C262        C  0.11180024  0.33745222  0.11372188    -0.12100
C263        C  0.13226943  0.35082132  0.14026198     0.18700
C264        C  0.13266859  0.38692205  0.14595946    -0.09200
C265        C  0.11306962  0.40911466  0.12494645    -0.02100
H266        H  0.11152295  0.30967126  0.10916252     0.05300
C267        C  0.15548432  0.32724994  0.15989839     0.20700
H268        H  0.11409017  0.43681475  0.12967885     0.10400
C269        C  0.19139723  0.32784185  0.15281874    -0.15500
C270        C  0.21536977  0.30903857  0.17258073     0.03400
C271        C  0.20329073  0.28807371  0.20055088    -0.10800
C272        C  0.16649129  0.28515024  0.20502147    -0.00900
C273        C  0.14284749  0.30521828  0.18579960    -0.06000
H274        H  0.20099049  0.34431262  0.13225227     0.06400
H275        H  0.15591052  0.26827710  0.22469979     0.09800
Br276      Br  0.15959277  0.40695708  0.18235851    -0.05700
Br277      Br  0.06387922  0.33708003  0.05845230    -0.02700
Br278      Br  0.26302248  0.31687050  0.15852775     0.00200
Br279      Br  0.09384802  0.30391136  0.19751080    -0.04200
C280        C  0.90267868  0.40053090  0.10512269    -0.11600
C281        C  0.87873023  0.37594608  0.09204993     0.03900
C282        C  0.86180749  0.35249804  0.11423804    -0.12100
C283        C  0.86807836  0.35289431  0.14968431     0.18700
C284        C  0.89214260  0.37724562  0.16279470    -0.09200
C285        C  0.90890191  0.40085972  0.14067453    -0.02100
H286        H  0.84316084  0.33418334  0.10382231     0.05300
C287        C  0.84857489  0.32837798  0.17250515     0.20700
H288        H  0.92756504  0.41899561  0.15131913     0.10400
C289        C  0.85443319  0.29235121  0.16995634    -0.15500
C290        C  0.83520137  0.26870355  0.19020036     0.03400
C291        C  0.80984221  0.28091077  0.21406265    -0.10800
C292        C  0.80559832  0.31696630  0.21744118    -0.00900
C293        C  0.82332000  0.34049336  0.19629506    -0.06000
H294        H  0.87397408  0.28253955  0.15192399     0.06400
H295        H  0.78646521  0.32703051  0.23584935     0.09800
Br296      Br  0.90403737  0.37834456  0.21058158    -0.05700
Br297      Br  0.86649072  0.37439584  0.04439761    -0.02700
Br298      Br  0.84637917  0.22049533  0.18571364     0.00200
Br299      Br  0.80945884  0.38848870  0.19841641    -0.04200
C300        C  0.89702578  0.39668218  0.40293689    -0.11600
C301        C  0.87803533  0.40916473  0.37436867     0.03900
C302        C  0.86045650  0.38582786  0.35286189    -0.12100
C303        C  0.86074679  0.34989699  0.35929059     0.18700
C304        C  0.87950149  0.33739107  0.38781538    -0.09200
C305        C  0.89731974  0.36061821  0.40919525    -0.02100
H306        H  0.84599006  0.39585750  0.33112950     0.05300
C307        C  0.84025020  0.32634072  0.33663826     0.20700
H308        H  0.91172534  0.35011300  0.43068381     0.10400
C309        C  0.85730978  0.30019236  0.31739322    -0.15500
C310        C  0.83831772  0.27805317  0.29563331     0.03400
C311        C  0.80170873  0.28275769  0.29166183    -0.10800
C312        C  0.78490278  0.30866269  0.31142576    -0.00900
C313        C  0.80353216  0.32988227  0.33388618    -0.06000
H314        H  0.88546366  0.29663851  0.31971851     0.06400
H315        H  0.75682517  0.31249134  0.30973814     0.09800
Br316      Br  0.88053755  0.28898400  0.39961666    -0.05700
Br317      Br  0.87338357  0.45776177  0.36406746    -0.02700
Br318      Br  0.86312339  0.23999986  0.27484449     0.00200
Br319      Br  0.77698937  0.36194494  0.36171217    -0.04200
C320        C  0.79767870  0.71916534  0.29814076    -0.11600
C321        C  0.83454346  0.72327177  0.29843090     0.03900
C322        C  0.85539194  0.70125422  0.31868458    -0.12100
C323        C  0.83989125  0.67602516  0.33982027     0.18700
C324        C  0.80313090  0.67421489  0.34210236    -0.09200
C325        C  0.78242185  0.69567346  0.32161151    -0.02100
H326        H  0.88372384  0.70393726  0.31812339     0.05300
C327        C  0.86197001  0.65215955  0.36018555     0.20700
H328        H  0.75430655  0.69205795  0.32266387     0.10400
C329        C  0.86515702  0.65798144  0.39545222    -0.15500
C330        C  0.88307587  0.63438194  0.41633907     0.03400
C331        C  0.89871060  0.60425099  0.40180044    -0.10800
C332        C  0.89544699  0.59861684  0.36628650    -0.00900
C333        C  0.87715327  0.62215694  0.34556634    -0.06000
H334        H  0.85281120  0.68066777  0.40692501     0.06400
H335        H  0.90723236  0.57594662  0.35435380     0.09800
Br336      Br  0.78009133  0.64133628  0.37148984    -0.01100
Br337      Br  0.85735222  0.76013542  0.27403237    -0.02700
Br338      Br  0.88317939  0.64439274  0.46461203     0.00200
Br339      Br  0.87246264  0.61163544  0.29770710    -0.04200
C340        C  0.90783067  0.61029403  0.10151427    -0.11600
C341        C  0.87473904  0.62513134  0.09412720     0.03900
C342        C  0.85895234  0.64867568  0.11719276    -0.12100
C343        C  0.87578725  0.65830675  0.14768312     0.18700
C344        C  0.90922999  0.64418028  0.15469947    -0.09200
C345        C  0.92484165  0.62023966  0.13187117    -0.02100
H346        H  0.83296255  0.65883908  0.11175536     0.05300
C347        C  0.85604297  0.67943677  0.17355434     0.20700
H348        H  0.95055914  0.60962982  0.13768237     0.10400
C349        C  0.83891962  0.66205043  0.20025423    -0.15500
C350        C  0.81558788  0.67940842  0.22240616     0.03400
C351        C  0.80950436  0.71573372  0.21890757    -0.10800
C352        C  0.82792247  0.73330173  0.19273640    -0.00900
C353        C  0.85096653  0.71555602  0.17027482    -0.06000
H354        H  0.84218379  0.63414851  0.20260226     0.06400
H355        H  0.82340720  0.76086061  0.18900136     0.09800
Br356      Br  0.93457869  0.65736992  0.19495787    -0.05700
Br357      Br  0.84896192  0.61224838  0.05405050    -0.02700
Br358      Br  0.78988158  0.64967362  0.25251666     0.00200
Br359      Br  0.87437105  0.74137713  0.13497667    -0.04200
C360        C  0.60557720  0.08500033  0.39798924    -0.11600
C361        C  0.63084790  0.10817470  0.41116938     0.03900
C362        C  0.65517271  0.12377208  0.38917666    -0.12100
C363        C  0.65337699  0.11938989  0.35354510     0.18700
C364        C  0.62767667  0.09705443  0.34004585    -0.09200
C365        C  0.60437798  0.07970867  0.36226368    -0.02100
H366        H  0.67424402  0.14154483  0.39980511     0.05300
C367        C  0.67535000  0.14228418  0.33151936     0.20700
H368        H  0.58505710  0.06231222  0.35151167     0.10400
C369        C  0.70176740  0.12865114  0.30981625    -0.15500
C370        C  0.72335303  0.15080712  0.29010502     0.03400
C371        C  0.71841224  0.18727428  0.29173944    -0.10800
C372        C  0.69373323  0.20024251  0.31561017    -0.00900
C373        C  0.67173554  0.17852678  0.33428513    -0.06000
H374        H  0.70594031  0.10081085  0.30860511     0.06400
H375        H  0.69041423  0.22763125  0.31970710     0.09800
Br376      Br  0.62204399  0.09105691  0.29158788    -0.05700
Br377      Br  0.63092481  0.12402804  0.45791992    -0.02700
Br378      Br  0.76102066  0.13016917  0.26408463     0.00200
Br379      Br  0.63596017  0.20030842  0.36216439    -0.04200
C380        C  0.59945465  0.09594691  0.09851523    -0.11600
C381        C  0.62796796  0.07793461  0.11337394     0.03900
C382        C  0.65039758  0.09509604  0.13615496    -0.12100
C383        C  0.64510796  0.13025088  0.14452089     0.18700
C384        C  0.61701724  0.14842572  0.12898321    -0.09200
C385        C  0.59417271  0.13106888  0.10672467    -0.02100
H386        H  0.67191819  0.08083076  0.14768268     0.05300
C387        C  0.66961551  0.14752296  0.16881174     0.20700
H388        H  0.57255332  0.14524175  0.09525705     0.10400
C389        C  0.70523829  0.15084911  0.15997565    -0.15500
C390        C  0.72875212  0.16836309  0.18148310     0.03400
C391        C  0.71691004  0.18388073  0.21238222    -0.10800
C392        C  0.68147486  0.17848496  0.22193429    -0.00900
C393        C  0.65823565  0.16011001  0.20093997    -0.06000
H394        H  0.71480737  0.13991238  0.13602775     0.06400
H395        H  0.67095053  0.18981840  0.24520044     0.09800
Br396      Br  0.60985634  0.19737903  0.13564524    -0.05700
Br397      Br  0.63647208  0.02945005  0.10475087    -0.02700
Br398      Br  0.77702724  0.16801444  0.16806749     0.00200
Br399      Br  0.61122751  0.15260763  0.21749441    -0.04200
C400        C  0.28877990  0.19626257  0.21338932    -0.11600
C401        C  0.32407432  0.18561261  0.21806299     0.03900
C402        C  0.34083471  0.16473349  0.19355628    -0.12100
C403        C  0.32412255  0.15550326  0.16304911     0.18700
C404        C  0.28862747  0.16507929  0.15855025    -0.09200
C405        C  0.27135912  0.18524867  0.18359801    -0.02100
H406        H  0.36801899  0.15720015  0.19743782     0.05300
C407        C  0.34513919  0.13741913  0.13603420     0.20700
H408        H  0.24453624  0.19365001  0.17913108     0.10400
C409        C  0.33623076  0.10355455  0.12612948    -0.15500
C410        C  0.35752979  0.08475086  0.10314877     0.03400
C411        C  0.38842096  0.09982197  0.08965592    -0.10800
C412        C  0.39725696  0.13368841  0.09932345    -0.00900
C413        C  0.37586403  0.15256787  0.12210489    -0.06000
H414        H  0.31323849  0.09127119  0.13719448     0.06400
H415        H  0.42099985  0.14544568  0.08923521     0.09800
Br416      Br  0.26344880  0.15367590  0.11764677    -0.05700
Br417      Br  0.35328229  0.20148139  0.25428105    -0.02700
Br418      Br  0.34482461  0.03755412  0.09348472     0.00200
Br419      Br  0.38979223  0.19905198  0.13319063    -0.04200
C420        C  0.27869972  0.19496627  0.29359355    -0.11600
C421        C  0.27627097  0.15867037  0.28853676     0.03900
C422        C  0.29748347  0.13582339  0.30784894    -0.12100
C423        C  0.32030924  0.14844060  0.33328428     0.18700
C424        C  0.31993368  0.18434348  0.34044685    -0.09200
C425        C  0.29933806  0.20693752  0.32095539    -0.02100
H426        H  0.29646404  0.10819154  0.30268938     0.05300
C427        C  0.34515002  0.12471144  0.35168232     0.20700
H428        H  0.30135261  0.23442430  0.32619259     0.10400
C429        C  0.38148760  0.13124905  0.34979544    -0.15500
C430        C  0.40556265  0.11291664  0.37018013     0.03400
C431        C  0.39375227  0.08621817  0.39216543    -0.10800
C432        C  0.35751677  0.07884150  0.39315085    -0.00900
C433        C  0.33334519  0.09775894  0.37331526    -0.06000
H434        H  0.39103600  0.15199895  0.33348094     0.06400
H435        H  0.34778796  0.05849520  0.40984102     0.09800
Br436      Br  0.34763724  0.20447750  0.37627183    -0.05700
Br437      Br  0.24304366  0.13898356  0.25739310    -0.02700
Br438      Br  0.45336706  0.12858645  0.36988059     0.00200
Br439      Br  0.28435392  0.08721635  0.37849945    -0.04200
C440        C  0.60189112  0.91757504  0.11334297    -0.11600
C441        C  0.59271073  0.90014990  0.14413508     0.03900
C442        C  0.61887659  0.88378334  0.16364818    -0.12100
C443        C  0.65413837  0.88363773  0.15291518     0.18700
C444        C  0.66343635  0.90104738  0.12259346    -0.09200
C445        C  0.63764015  0.91817902  0.10346738    -0.02100
H446        H  0.61137854  0.86926437  0.18634388     0.05300
C447        C  0.67904297  0.85946295  0.16968205     0.20700
H448        H  0.64565110  0.93121281  0.08009365     0.10400
C449        C  0.68168689  0.82594044  0.15648703    -0.15500
C450        C  0.70076345  0.80003147  0.17324112     0.03400
C451        C  0.71826095  0.80751906  0.20471394    -0.10800
C452        C  0.71858424  0.84261225  0.21553740    -0.00900
C453        C  0.69845187  0.86819016  0.19889882    -0.06000
H454        H  0.66728382  0.81949449  0.13344847     0.06400
H455        H  0.73312836  0.84998084  0.23813188     0.09800
Br456      Br  0.71073373  0.89997243  0.10517661    -0.05700
Br457      Br  0.54517704  0.89369678  0.15951574    -0.02700
Br458      Br  0.69738251  0.75587883  0.15082310     0.00200
Br459      Br  0.69687878  0.91422227  0.21759273    -0.04200
C460        C  0.60250298  0.89713347  0.40878137    -0.11600
C461        C  0.60708748  0.86082184  0.40841245     0.03900
C462        C  0.62878830  0.84530414  0.38337653    -0.12100
C463        C  0.64654077  0.86562169  0.35885698     0.18700
C464        C  0.64261884  0.90200194  0.35989195    -0.09200
C465        C  0.62063066  0.91742524  0.38461795    -0.02100
H466        H  0.63169742  0.81727877  0.38288652     0.05300
C467        C  0.66814099  0.84817141  0.33194847     0.20700
H468        H  0.61731538  0.94541613  0.38474681     0.10400
C469        C  0.65145739  0.83397087  0.30331917    -0.15500
C470        C  0.67019790  0.81381462  0.27934678     0.03400
C471        C  0.70654182  0.80708618  0.28403759    -0.10800
C472        C  0.72341004  0.82277578  0.31198336    -0.00900
C473        C  0.70464168  0.84349174  0.33554597    -0.06000
H474        H  0.62335866  0.83749463  0.30031586     0.06400
H475        H  0.75116454  0.81801305  0.31606986     0.09800
Br476      Br  0.66618527  0.93152389  0.32761697    -0.05700
Br477      Br  0.58381057  0.83159195  0.44117939    -0.02700
Br478      Br  0.64321772  0.79316135  0.24355700     0.00200
Br479      Br  0.72948105  0.86387865  0.37306220    -0.04200
C480        C  0.28091193  0.79698563  0.29808583    -0.11600
C481        C  0.29720800  0.78715824  0.32963445     0.03900
C482        C  0.31823870  0.81070513  0.34729300    -0.12100
C483        C  0.32318111  0.84450832  0.33567302     0.18700
C484        C  0.30466898  0.85581564  0.30666677    -0.09200
C485        C  0.28299962  0.83252353  0.28894369    -0.02100
H486        H  0.33134210  0.80245297  0.37055969     0.05300
C487        C  0.34800883  0.86666166  0.35491882     0.20700
H488        H  0.26884809  0.84214848  0.26691164     0.10400
C489        C  0.38402010  0.85859793  0.35343294    -0.15500
C490        C  0.40796110  0.87453217  0.37553810     0.03400
C491        C  0.39599296  0.89950338  0.39965303    -0.10800
C492        C  0.35988001  0.90761546  0.40089014    -0.00900
C493        C  0.33598884  0.89130890  0.37900361    -0.06000
H494        H  0.39333349  0.83867492  0.33586785     0.06400
H495        H  0.35003082  0.92658737  0.41916163     0.09800
Br496      Br  0.31004843  0.90196238  0.28900758    -0.05700
Br497      Br  0.29324845  0.74392817  0.35348255    -0.02700
Br498      Br  0.45575167  0.85821125  0.37357973     0.00200
Br499      Br  0.28690997  0.90173538  0.38449478    -0.04200
C500        C  0.29197829  0.80106020  0.21941063    -0.11600
C501        C  0.27728138  0.82167207  0.19335568     0.03900
C502        C  0.29894258  0.84233741  0.17265259    -0.12100
C503        C  0.33557708  0.84226069  0.17685506     0.18700
C504        C  0.35027754  0.82234343  0.20360049    -0.09200
C505        C  0.32842318  0.80240452  0.22494762    -0.02100
H506        H  0.28722724  0.85796352  0.15260246     0.05300
C507        C  0.35767252  0.86307778  0.15291546     0.20700
H508        H  0.34012730  0.78615330  0.24453560     0.10400
C509        C  0.37469711  0.89282498  0.16504438    -0.15500
C510        C  0.39375745  0.91439725  0.14275161     0.03400
C511        C  0.39640638  0.90617490  0.10740157    -0.10800
C512        C  0.37918252  0.87643179  0.09530764    -0.00900
C513        C  0.36009598  0.85491964  0.11768748    -0.06000
H514        H  0.37234209  0.89980941  0.19190143     0.06400
H515        H  0.38088688  0.86964894  0.06836914     0.09800
Br516      Br  0.40013561  0.81897170  0.20992371    -0.05700
Br517      Br  0.22765928  0.82211874  0.18511843    -0.02700
Br518      Br  0.41260784  0.95629873  0.16187443     0.00200
Br519      Br  0.33843817  0.81414181  0.09916981    -0.04200
C520        C  0.41183760  0.59483440  0.40237052    -0.11600
C521        C  0.40892977  0.58433582  0.36801938     0.03900
C522        C  0.39059413  0.60530754  0.34496952    -0.12100
C523        C  0.37523453  0.63658661  0.35604305     0.18700
C524        C  0.37907224  0.64747081  0.39024594    -0.09200
C525        C  0.39764471  0.62666766  0.41312814    -0.02100
H526        H  0.38744883  0.59680795  0.31866860     0.05300
C527        C  0.35146320  0.65516867  0.33300127     0.20700
H528        H  0.40037581  0.63495445  0.43955235     0.10400
C529        C  0.31548679  0.64913454  0.33650206    -0.15500
C530        C  0.29138280  0.66649112  0.31592108     0.03400
C531        C  0.30328192  0.69004887  0.29069091    -0.10800
C532        C  0.33963693  0.69637517  0.28772060    -0.00900
C533        C  0.36371502  0.67896676  0.30852159    -0.06000
H534        H  0.30610539  0.63107050  0.35579470     0.06400
H535        H  0.34932989  0.71545919  0.26962783     0.09800
Br536      Br  0.35840911  0.68985147  0.40698521    -0.05700
Br537      Br  0.42971811  0.54184144  0.35174835    -0.02700
Br538      Br  0.24313075  0.65716187  0.32509364     0.00200
Br539      Br  0.41276548  0.68909466  0.30346975    -0.04200
C540        C  0.31175051  0.69439893  0.21327624    -0.11600
C541        C  0.31332271  0.65787465  0.21132789     0.03900
C542        C  0.33925088  0.64194916  0.19113535    -0.12100
C543        C  0.36456136  0.66173365  0.17359313     0.18700
C544        C  0.36298066  0.69823229  0.17560470    -0.09200
C545        C  0.33635281  0.71411061  0.19482057    -0.02100
H546        H  0.33945816  0.61389143  0.18881087     0.05300
C547        C  0.39080173  0.64366143  0.15176843     0.20700
H548        H  0.33519019  0.74205462  0.19554780     0.10400
C549        C  0.39166069  0.65072232  0.11642713    -0.15500
C550        C  0.41326064  0.63143302  0.09437151     0.03400
C551        C  0.43405926  0.60434739  0.10764440    -0.10800
C552        C  0.43387899  0.59765613  0.14289833    -0.00900
C553        C  0.41268841  0.61726679  0.16508513    -0.06000
H554        H  0.37440492  0.67036565  0.10575854     0.06400
H555        H  0.44957612  0.57650465  0.15306643     0.09800
Br556      Br  0.39696805  0.72773042  0.15368589    -0.05700
Br557      Br  0.27960818  0.62843348  0.23358616    -0.02700
Br558      Br  0.41108088  0.64091079  0.04605133     0.00200
Br559      Br  0.41428857  0.60656149  0.21317941    -0.04200
C560        C  0.59366051  0.57328614  0.37695024    -0.11600
C561        C  0.57858532  0.59352637  0.35083565     0.03900
C562        C  0.60051669  0.61167208  0.32848974    -0.12100
C563        C  0.63711735  0.61027012  0.33237944     0.18700
C564        C  0.65212612  0.58863414  0.35729157    -0.09200
C565        C  0.63033096  0.56983165  0.37896217    -0.02100
H566        H  0.58902039  0.62856210  0.30930681     0.05300
C567        C  0.65821796  0.63659494  0.31520569     0.20700
H568        H  0.64222974  0.55443254  0.39908929     0.10400
C569        C  0.65375119  0.67096970  0.32583442    -0.15500
C570        C  0.67193316  0.69772582  0.30990046     0.03400
C571        C  0.69525212  0.69012953  0.28246537    -0.10800
C572        C  0.70041901  0.65511060  0.27293175    -0.00900
C573        C  0.68198753  0.62844470  0.28885103    -0.06000
H574        H  0.63542085  0.67703837  0.34644730     0.06400
H575        H  0.71812175  0.64817465  0.25237004     0.09800
Br576      Br  0.70170310  0.58720384  0.36582148    -0.05700
Br577      Br  0.52869376  0.59792655  0.34489262    -0.02700
Br578      Br  0.66046708  0.74338593  0.32585937     0.00200
Br579      Br  0.68923639  0.58170995  0.27303043    -0.04200
C580        C  0.70521109  0.69181643  0.20387562    -0.11600
C581        C  0.66899095  0.68376243  0.20211966     0.03900
C582        C  0.65740632  0.66006986  0.17778174    -0.12100
C583        C  0.68096850  0.64464795  0.15465374     0.18700
C584        C  0.71680374  0.65257994  0.15596039    -0.09200
C585        C  0.72868785  0.67578286  0.18064130    -0.02100
H586        H  0.62959363  0.65431684  0.17616247     0.05300
C587        C  0.66664717  0.62230251  0.12796544     0.20700
H588        H  0.75641430  0.68160945  0.18123865     0.10400
C589        C  0.65947419  0.63697860  0.09592636    -0.15500
C590        C  0.63943283  0.61891909  0.07214916     0.03400
C591        C  0.62691340  0.58558299  0.08041053    -0.10800
C592        C  0.63605273  0.57001099  0.11154126    -0.00900
C593        C  0.65541396  0.58844771  0.13563542    -0.06000
H594        H  0.66797899  0.66318289  0.09014351     0.06400
H595        H  0.62629762  0.54439277  0.11794849     0.09800
Br596      Br  0.75018247  0.63272469  0.12437684    -0.05700
Br597      Br  0.63306607  0.70521608  0.22965492    -0.02700
Br598      Br  0.62932455  0.64111013  0.02919653     0.00200
Br599      Br  0.66378055  0.56763965  0.17951141    -0.04200
C600        C  0.68927807  0.29507087  0.27395174    -0.11600
C601        C  0.69198905  0.33152758  0.27706580     0.03900
C602        C  0.66759397  0.34987981  0.29711266    -0.12100
C603        C  0.63911489  0.33287683  0.31249886     0.18700
C604        C  0.63357465  0.29759871  0.30523631    -0.09200
C605        C  0.65916724  0.27884082  0.28719684    -0.02100
H606        H  0.67117246  0.37749564  0.30117824     0.05300
C607        C  0.61670627  0.35205823  0.33719884     0.20700
H608        H  0.65490389  0.25150270  0.28272229     0.10400
C609        C  0.59943586  0.38251667  0.32665122    -0.15500
C610        C  0.58105621  0.40311945  0.35035071     0.03400
C611        C  0.57895812  0.39272491  0.38486969    -0.10800
C612        C  0.59563093  0.36206222  0.39536446    -0.00900
C613        C  0.61511003  0.34211595  0.37202743    -0.06000
H614        H  0.60110644  0.39075717  0.30011786     0.06400
H615        H  0.59521332  0.35472265  0.42220097     0.09800
Br616      Br  0.59083458  0.27454355  0.31801054    -0.05700
Br617      Br  0.72724968  0.35841670  0.25463161    -0.02700
Br618      Br  0.55995405  0.44562864  0.33478913     0.00200
Br619      Br  0.64224870  0.30401726  0.38990624    -0.04200
C620        C  0.60549561  0.39977962  0.09230723    -0.11600
C621        C  0.61772094  0.41083706  0.12434268     0.03900
C622        C  0.63952058  0.38888241  0.14310227    -0.12100
C623        C  0.64849789  0.35599280  0.13022405     0.18700
C624        C  0.63528288  0.34460157  0.09866950    -0.09200
C625        C  0.61408491  0.36674300  0.07971651    -0.02100
H626        H  0.64862385  0.39693954  0.16814509     0.05300
C627        C  0.66816186  0.33232275  0.15191620     0.20700
H628        H  0.60428399  0.35820151  0.05508504     0.10400
C629        C  0.64933939  0.30761938  0.17042912    -0.15500
C630        C  0.66647458  0.28521630  0.19264228     0.03400
C631        C  0.70314239  0.28809862  0.19713710    -0.10800
C632        C  0.72211959  0.31152266  0.17671187    -0.00900
C633        C  0.70482965  0.33398906  0.15442509    -0.06000
H634        H  0.62107355  0.30578503  0.16744912     0.06400
H635        H  0.75033261  0.31309838  0.17867383     0.09800
Br636      Br  0.64477657  0.29889120  0.08103083    -0.05700
Br637      Br  0.60298254  0.45415586  0.14435461    -0.02700
Br638      Br  0.63784969  0.25035877  0.21314612     0.00200
Br639      Br  0.73191843  0.36664236  0.12829683    -0.04200
C640        C  0.38413044  0.40641845  0.42207812    -0.11600
C641        C  0.36102090  0.42263294  0.39886784     0.03900
C642        C  0.33734681  0.40241873  0.38033899    -0.12100
C643        C  0.33624979  0.36633416  0.38497153     0.18700
C644        C  0.35712243  0.35068565  0.41032210    -0.09200
C645        C  0.38101354  0.37071027  0.42850638    -0.02100
H646        H  0.32166742  0.41447705  0.36047880     0.05300
C647        C  0.32074095  0.34489099  0.35793656     0.20700
H648        H  0.39785168  0.35811264  0.44708949     0.10400
C649        C  0.34396368  0.32799142  0.33549249    -0.15500
C650        C  0.33172843  0.30751878  0.30880696     0.03400
C651        C  0.29518301  0.30430269  0.30354664    -0.10800
C652        C  0.27187396  0.32117232  0.32649838    -0.00900
C653        C  0.28437161  0.34154465  0.35344665    -0.06000
H654        H  0.37207979  0.33046904  0.33912993     0.06400
H655        H  0.24375593  0.31885930  0.32329037     0.09800
Br656      Br  0.35550648  0.30163843  0.41915940    -0.05700
Br657      Br  0.36349977  0.47128155  0.38839917    -0.02700
Br658      Br  0.36718919  0.28316667  0.28342408     0.00200
Br659      Br  0.25112108  0.36356869  0.38372289    -0.04200
C660        C  0.31362879  0.30812517  0.22528503    -0.11600
C661        C  0.31137876  0.34465258  0.22840959     0.03900
C662        C  0.33511979  0.36563050  0.21052598    -0.12100
C663        C  0.36002795  0.35109152  0.18795485     0.18700
C664        C  0.36243267  0.31463797  0.18499775    -0.09200
C665        C  0.33931123  0.29358214  0.20351036    -0.02100
H666        H  0.33285436  0.39362479  0.21274130     0.05300
C667        C  0.38115511  0.37423065  0.16563038     0.20700
H668        H  0.34091079  0.26563043  0.20038458     0.10400
C669        C  0.41801693  0.37265746  0.16676899    -0.15500
C670        C  0.43858552  0.39146825  0.14344519     0.03400
C671        C  0.42213144  0.41307884  0.11900878    -0.10800
C672        C  0.38540527  0.41625437  0.11936482    -0.00900
C673        C  0.36488449  0.39686363  0.14203432    -0.06000
H674        H  0.43081211  0.35602063  0.18536018     0.06400
H675        H  0.37236510  0.43265315  0.10073350     0.09800
Br676      Br  0.39503183  0.29222724  0.15429055    -0.05700
Br677      Br  0.27351552  0.36791336  0.25180536    -0.02700
Br678      Br  0.48875840  0.38706067  0.14695103     0.00200
Br679      Br  0.31475858  0.40054443  0.13744198    -0.04200
C680        C  0.44182800  0.43071366  0.59141828     0.42800
N681        N  0.44963283  0.46282529  0.54700145     0.01700
C682        C  0.58055660  0.44622102  0.92472561    -0.06200
H683        H  0.62153798  0.46595327  0.55443981     0.07200
C684        C  0.56769285  0.58231042  0.54811139    -0.06500
Co685      Co  0.50440329  0.43327792  0.50022992     0.74200
N686        N  0.57325109  0.45650751  0.52729936    -0.25700
Co687      Co  0.57077996  0.49296940  0.98871651     0.74100
C688        C  0.60136923  0.56830899  0.55881482     0.42900
N689        N  0.47870426  0.56295362  0.53945002     0.01300
N690        N  0.57836128  0.53276066  0.52387279     0.01400
N691        N  0.53745252  0.40669777  0.93292781    -0.46500
H692        H  0.48344775  0.39114717  0.57268473     0.07200
N693        N  0.54820618  0.43328200  0.53109483     0.01700
N694        N  0.56553052  0.52928315  0.95058060     0.01500
C695        C  0.57269206  0.55771758  0.90420497     0.43100
N696        N  0.45369021  0.53977524  0.54407442    -0.25100
C697        C  0.44656295  0.41157509  0.94889280    -0.06100
N698        N  0.43032375  0.45965972  0.57520414    -0.46200
N699        N  0.58404037  0.52996331  0.92193501    -0.46500
C700        C  0.41235682  0.42553716  0.93902797     0.42800
N701        N  0.53709529  0.43078080  0.95725454     0.01700
N702        N  0.44172723  0.53790144  0.97018701    -0.25200
N703        N  0.47236395  0.43711714  0.54322654    -0.25700
N704        N  0.46716820  0.56071307  0.96602528     0.01400
H705        H  0.39256224  0.53018320  0.94381895     0.07200
H706        H  0.53170897  0.59908752  0.92064544     0.07300
N707        N  0.56239195  0.45373569  0.95330328    -0.25700
N708        N  0.55547652  0.55851203  0.52639711    -0.25300
N709        N  0.43677738  0.46107484  0.97342054     0.01700
C710        C  0.58425533  0.42214844  0.57105587     0.43100
C711        C  0.43531709  0.54808500  0.57225221    -0.06600
N712        N  0.54306615  0.55531672  0.95326390    -0.25300
H713        H  0.55525154  0.60688222  0.55434275     0.07300
N714        N  0.55415169  0.41162884  0.55661690    -0.46500
H715        H  0.41206884  0.53490989  0.58151382     0.07300
C716        C  0.43046830  0.57363206  0.92721453     0.43000
C717        C  0.46929863  0.41540339  0.56984923    -0.06100
Co718      Co  0.44457359  0.50051384  0.50883455     0.73800
N719        N  0.47783143  0.58794530  0.56281315    -0.46300
C720        C  0.56357039  0.41555549  0.91101633     0.43200
N721        N  0.40785019  0.45604007  0.95549483    -0.46200
Co722      Co  0.51110536  0.56025750  0.99634611     0.73900
C723        C  0.54591664  0.57513991  0.92519291    -0.06600
C724        C  0.59750079  0.45141561  0.55142871    -0.06100
N725        N  0.45965403  0.43536008  0.97021106    -0.25700
N726        N  0.60654783  0.53759168  0.54297004    -0.46400
H727        H  0.60352726  0.45981437  0.91539605     0.07200
C728        C  0.41693982  0.54417868  0.94666545    -0.06500
Cl729      Cl  0.50767175  0.49675632  0.49857393    -0.49500
C730        C  0.45163858  0.57963506  0.58480246     0.43000
H731        H  0.45851910  0.38672716  0.94283649     0.07200
N732        N  0.46121967  0.58296881  0.94096777    -0.46300
C733        C  0.57583719  0.93425731  0.58998487     0.42800
N734        N  0.55776073  0.96411836  0.54661888     0.01700
C735        C  0.40347430  0.06132086  0.53605195    -0.06200
H736        H  0.38339861  0.93223835  0.53379550     0.07200
C737        C  0.45452791  0.93230201  0.91382192    -0.06500
Co738      Co  0.49218628  0.00432820  0.56323808     0.74200
N739        N  0.43067285  0.96271339  0.53886828    -0.25700
Co740      Co  0.43195894  0.99676392  0.49660615     0.74100
C741        C  0.42022463  0.91806829  0.92304955     0.42900
N742        N  0.53986419  0.95502088  0.94391146     0.01300
N743        N  0.43548422  0.95614537  0.96077619     0.01400
N744        N  0.44303762  0.06578640  0.57872418    -0.46500
H745        H  0.52725932  0.95148240  0.62197136     0.07200
N746        N  0.45342269  0.96603824  0.56414888     0.01700
N747        N  0.43413558  0.03131609  0.95507213     0.01500
C748        C  0.41802376  0.06632402  0.91487377     0.43100
N749        N  0.56240965  0.95649486  0.96946469    -0.25100
C750        C  0.53950487  0.06635301  0.58484829    -0.06100
N751        N  0.58418064  0.94487633  0.55790707    -0.46200
N752        N  0.40814934  0.05197111  0.94505365    -0.46500
C753        C  0.57456586  0.07847232  0.57522039     0.42800
N754        N  0.45227246  0.04125268  0.55647849     0.01700
N755        N  0.56330062  0.03114926  0.96330404    -0.25200
N756        N  0.53237229  0.96762684  0.56960736    -0.25700
N757        N  0.54073299  0.03046223  0.93776433     0.01400
H758        H  0.61352248  0.05483046  0.96994858     0.07200
H759        H  0.46802685  0.05384453  0.88313332     0.07300
N760        N  0.42922014  0.03778737  0.53154868    -0.25700
N761        N  0.46160748  0.95559213  0.93830251    -0.25300
N762        N  0.55817366  0.03898501  0.53966688     0.01700
C763        C  0.41665681  0.92812068  0.58288623     0.43100
C764        C  0.58718401  0.93193367  0.96445403    -0.06600
N765        N  0.46053257  0.03031578  0.93283489    -0.25300
H766        H  0.46959616  0.92916423  0.89040211     0.07300
N767        N  0.44584809  0.94608728  0.59084765    -0.46500
H768        H  0.61073221  0.92878646  0.97955614     0.07300
C769        C  0.58148413  0.06544166  0.92107281     0.43000
C770        C  0.54133996  0.94982808  0.59788656    -0.06100
Co771      Co  0.56061785  0.99755763  0.50473617     0.73800
N772        N  0.54843712  0.93092539  0.92102197    -0.46300
C773        C  0.41273421  0.07997860  0.56729491     0.43200
N774        N  0.58459449  0.05986599  0.54736382    -0.46200
Co775      Co  0.50082755  0.99304043  0.93781990     0.73900
C776        C  0.45279843  0.05162667  0.90655097    -0.06600
C777        C  0.40660073  0.93892008  0.54820408    -0.06100
N778        N  0.53170796  0.04180216  0.56165143    -0.25700
N779        N  0.40983127  0.93469683  0.95210920    -0.46400
H780        H  0.37978119  0.06317141  0.52096550     0.07200
C781        C  0.58978960  0.05223277  0.95512966    -0.06500
Cl782      Cl  0.49638370  0.99792400  0.50059911    -0.49500
C783        C  0.57756285  0.91451443  0.93247815     0.43000
H784        H  0.52452553  0.07185158  0.60792803     0.07200
N785        N  0.55103705  0.05010290  0.91156272    -0.46300
C786        C  0.92243911  0.42481804  0.58220213     0.42800
N787        N  0.95891764  0.44055564  0.54248569     0.01700
C788        C  0.06228589  0.58908172  0.53685028    -0.06200
H789        H  0.93538073  0.61700902  0.52839431     0.07200
C790        C  0.93329129  0.54525688  0.91222699    -0.06500
Co791      Co  0.99902546  0.50462870  0.56201574     0.74200
N792        N  0.96139488  0.56755760  0.53549310    -0.25700
Co793      Co  0.99808550  0.56435635  0.49508620     0.74100
C794        C  0.91951910  0.57937463  0.92268292     0.42900
N795        N  0.95598528  0.45862167  0.93969464     0.01300
N796        N  0.95867128  0.56248756  0.95858435     0.01400
N797        N  0.06198105  0.55083550  0.58080063    -0.46500
H798        H  0.93574571  0.47282040  0.61501160     0.07200
N799        N  0.96172211  0.54521488  0.56122889     0.01700
N800        N  0.03472898  0.56128367  0.95458655     0.01500
C801        C  0.06948450  0.57688284  0.91339346     0.43100
N802        N  0.95665385  0.43602130  0.96513085    -0.25100
C803        C  0.05918290  0.45537851  0.58659283    -0.06100
N804        N  0.93704683  0.41546580  0.55180859    -0.46200
N805        N  0.05571777  0.58669576  0.94405839    -0.46500
C806        C  0.07239906  0.42095959  0.57648843     0.42800
N807        N  0.03813351  0.54270086  0.55749458     0.01700
N808        N  0.03284076  0.43431671  0.96184136    -0.25200
N809        N  0.96034937  0.46588849  0.56538447    -0.25700
N810        N  0.03226484  0.45706803  0.93647516     0.01400
H811        H  0.06001750  0.38532269  0.96816885     0.07200
H812        H  0.05729344  0.52722151  0.88274439     0.07300
N813        N  0.03752943  0.56505426  0.53180366    -0.25700
N814        N  0.95744550  0.53709130  0.93584685    -0.25300
N815        N  0.03514558  0.43905912  0.53918954     0.01700
C816        C  0.92542527  0.58543265  0.57753832     0.43100
C817        C  0.93304680  0.41108475  0.95891132    -0.06600
N818        N  0.03326423  0.53548651  0.93227537    -0.25300
H819        H  0.92821305  0.53042595  0.88923805     0.07300
N820        N  0.94140211  0.55548931  0.58723929    -0.46500
H821        H  0.92962013  0.38791673  0.97423031     0.07300
C822        C  0.06963090  0.41822028  0.91959887     0.43000
C823        C  0.93824829  0.45824836  0.59137735    -0.06100
Co824      Co  0.99590955  0.43725806  0.50225816     0.73800
N825        N  0.93343989  0.44976141  0.91544091    -0.46300
C826        C  0.07889074  0.57944535  0.56916496     0.43200
N827        N  0.05621592  0.41280069  0.54692388    -0.46200
Co828      Co  0.99471458  0.49698365  0.93579837     0.73900
C829        C  0.05487855  0.54259670  0.90587337    -0.06600
C830        C  0.93897612  0.59357204  0.54329147    -0.06100
N831        N  0.03604201  0.46423293  0.56221158    -0.25700
N832        N  0.93692396  0.58832125  0.95135003    -0.46400
H833        H  0.06586286  0.61210706  0.52136143     0.07200
C834        C  0.05587817  0.40890217  0.95362187    -0.06500
Cl835      Cl  0.99689833  0.50079106  0.49880658    -0.49500
C836        C  0.91747808  0.42015532  0.92578935     0.43000
H837        H  0.06329662  0.46957159  0.61016629     0.07200
N838        N  0.05316075  0.44801647  0.91054237    -0.46300
C839        C  0.26532940  0.25969372  0.71934912     0.45800
H840        H  0.27251126  0.25942020  0.69190646    -0.03200
C841        C  0.25023787  0.25690514  0.78398506     0.45900
H842        H  0.24356384  0.25575075  0.81175442    -0.03200
C843        C  0.28776649  0.28433462  0.74141497    -0.16900
C844        C  0.22714789  0.27131280  0.72696302    -0.16600
C845        C  0.27108970  0.22341968  0.73501439    -0.17000
C846        C  0.27985396  0.28259507  0.77586746    -0.17000
C847        C  0.21933543  0.26974376  0.76175930    -0.16600
C848        C  0.26353798  0.22172400  0.76964746    -0.16900
C849        C  0.75198187  0.24277530  0.71463393     0.45800
H850        H  0.75604091  0.23991278  0.68653425    -0.03200
C851        C  0.74254249  0.25038927  0.77995729     0.45900
H852        H  0.73890938  0.25423011  0.80794451    -0.03200
C853        C  0.72237529  0.26853372  0.72364621    -0.16900
C854        C  0.73950933  0.20882714  0.73264476    -0.16600
C855        C  0.78490147  0.25744963  0.73327837    -0.17000
C856        C  0.71734564  0.27288196  0.75820648    -0.17000
C857        C  0.73633568  0.21267160  0.76795984    -0.16600
C858        C  0.77962448  0.26088678  0.76821949    -0.16900
C859        C  0.26159849  0.74118789  0.71685695     0.45800
H860        H  0.26651589  0.74381306  0.68881798    -0.03200
C861        C  0.25058348  0.73527722  0.78219382     0.45900
H862        H  0.24418211  0.73217369  0.80958144    -0.03200
C863        C  0.28425617  0.71300565  0.73345087    -0.16900
C864        C  0.27044163  0.77423679  0.73723674    -0.16600
C865        C  0.22371234  0.73082964  0.72548500    -0.17000
C866        C  0.27877456  0.70967316  0.76818094    -0.17000
C867        C  0.26544456  0.77142150  0.77243923    -0.16600
C868        C  0.21754179  0.72833887  0.76020270    -0.16900
C869        C  0.74709413  0.74444146  0.71627504     0.45800
H870        H  0.75314822  0.74377237  0.68852844    -0.03200
C871        C  0.73613963  0.74561095  0.78176695     0.45900
H872        H  0.73184857  0.74645874  0.80991282    -0.03200
C873        C  0.71980713  0.71759216  0.72833892    -0.16900
C874        C  0.78009475  0.73488164  0.73712616    -0.16600
C875        C  0.73198033  0.77967888  0.72878884    -0.17000
C876        C  0.71428578  0.71783766  0.76333316    -0.17000
C877        C  0.77447380  0.73621695  0.77216354    -0.16600
C878        C  0.72639261  0.78001822  0.76391782    -0.16900
C879        C  0.20217580  0.71248979  0.69920686    -0.11600
C880        C  0.16658078  0.72049850  0.69313079     0.03900
C881        C  0.14690146  0.69968488  0.67079205    -0.12100
C882        C  0.16235755  0.67107883  0.65383701     0.18700
C883        C  0.19849561  0.66455280  0.65823538    -0.09200
C884        C  0.21788859  0.68511642  0.68064552    -0.02100
H885        H  0.11939708  0.70572722  0.66671872     0.05300
C886        C  0.14054131  0.64792898  0.63220892     0.20700
H887        H  0.24530816  0.67887713  0.68418736     0.10400
C888        C  0.14730732  0.64558604  0.59682611    -0.15500
C889        C  0.12831428  0.62277126  0.57602048     0.03400
C890        C  0.10146086  0.60207024  0.59048195    -0.10800
C891        C  0.09492488  0.60426504  0.62595017    -0.00900
C892        C  0.11407274  0.62695458  0.64673892    -0.06000
H893        H  0.16789629  0.66123778  0.58542465     0.06400
H894        H  0.07443649  0.58864295  0.63755215     0.09800
Br895      Br  0.22252619  0.62685078  0.63562919    -0.05700
Br896      Br  0.14441571  0.76053623  0.71313236    -0.02700
Br897      Br  0.14208765  0.61937104  0.52863699     0.00200
Br898      Br  0.10377446  0.62761375  0.69502723    -0.04200
C899        C  0.08689286  0.60127240  0.88890910    -0.11600
C900        C  0.07557879  0.60529694  0.85457868     0.03900
C901        C  0.09309784  0.62823516  0.83238633    -0.12100
C902        C  0.12210217  0.64753220  0.84337980     0.18700
C903        C  0.13279487  0.64435149  0.87787227    -0.09200
C904        C  0.11507275  0.62165132  0.90027758    -0.02100
H905        H  0.08421956  0.63080673  0.80615532     0.05300
C906        C  0.14199657  0.66919554  0.81811254     0.20700
H907        H  0.12394338  0.61926078  0.92652733     0.10400
C908        C  0.14334356  0.70552606  0.82193169    -0.15500
C909        C  0.16564736  0.72570230  0.80113113     0.03400
C910        C  0.18695629  0.70971019  0.77590124    -0.10800
C911        C  0.18300059  0.67393565  0.76992863    -0.00900
C912        C  0.16109322  0.65367498  0.79090309    -0.06000
H913        H  0.12792567  0.71806332  0.84191495     0.06400
H914        H  0.19951324  0.66104262  0.75103780     0.09800
Br915      Br  0.17268077  0.66896706  0.89514213    -0.05700
Br916      Br  0.03517757  0.58206653  0.83651878    -0.02700
Br917      Br  0.16650581  0.77504303  0.80796358     0.00200
Br918      Br  0.16220759  0.60424183  0.78436518    -0.04200
C919        C  0.08937089  0.39552285  0.89509082    -0.11600
C920        C  0.12062059  0.37807006  0.90434517     0.03900
C921        C  0.13861275  0.35730287  0.88021768    -0.12100
C922        C  0.12589245  0.35314552  0.84671797     0.18700
C923        C  0.09419448  0.36981462  0.83769937    -0.09200
C924        C  0.07655931  0.39114496  0.86158673    -0.02100
H925        H  0.16293180  0.34461228  0.88751852     0.05300
C926        C  0.14630591  0.33146884  0.82177916     0.20700
H927        H  0.05229026  0.40382723  0.85413344     0.10400
C928        C  0.14817612  0.29530351  0.82641972    -0.15500
C929        C  0.16980011  0.27449510  0.80536883     0.03400
C930        C  0.19042606  0.28973838  0.77929539    -0.10800
C931        C  0.18733048  0.32574197  0.77375693    -0.00900
C932        C  0.16565020  0.34654193  0.79465746    -0.06000
H933        H  0.13317756  0.28327954  0.84689512     0.06400
H934        H  0.20304610  0.33803696  0.75404419     0.09800
Br935      Br  0.07332829  0.36297932  0.79354266    -0.05700
Br936      Br  0.14100595  0.38329445  0.94889286    -0.02700
Br937      Br  0.17031448  0.22525733  0.81299331     0.00200
Br938      Br  0.16553529  0.39574572  0.78676182    -0.04200
C939        C  0.09281758  0.39608444  0.59788281    -0.11600
C940        C  0.09199476  0.35955047  0.59269899     0.03900
C941        C  0.11180338  0.33751620  0.61375527    -0.12100
C942        C  0.13230748  0.35089132  0.64026605     0.18700
C943        C  0.13274012  0.38699666  0.64593484    -0.09200
C944        C  0.11313643  0.40918662  0.62492255    -0.02100
H945        H  0.11149852  0.30973164  0.60921948     0.05300
C946        C  0.15551130  0.32731319  0.65990632     0.20700
H947        H  0.11417878  0.43689038  0.62963146     0.10400
C948        C  0.19142480  0.32788450  0.65282690    -0.15500
C949        C  0.21538467  0.30905748  0.67258174     0.03400
C950        C  0.20329082  0.28809031  0.70054420    -0.10800
C951        C  0.16648933  0.28518575  0.70501010    -0.00900
C952        C  0.14285937  0.30527792  0.68579748    -0.06000
H953        H  0.20102883  0.34435378  0.63226403     0.06400
H954        H  0.15589643  0.26830943  0.72467964     0.09800
Br955      Br  0.15971073  0.40704052  0.68229630    -0.05700
Br956      Br  0.06382250  0.33713314  0.55853674    -0.02700
Br957      Br  0.26304242  0.31685512  0.65852538     0.00200
Br958      Br  0.09385930  0.30399967  0.69751135    -0.04200
C959        C  0.90265256  0.40054441  0.60508539    -0.11600
C960        C  0.87873751  0.37593708  0.59199365     0.03900
C961        C  0.86180018  0.35248894  0.61417149    -0.12100
C962        C  0.86801916  0.35291020  0.64962640     0.18700
C963        C  0.89204083  0.37729115  0.66275752    -0.09200
C964        C  0.90881849  0.40090181  0.64064690    -0.02100
H965        H  0.84318356  0.33415397  0.60374016     0.05300
C966        C  0.84851117  0.32838515  0.67243439     0.20700
H967        H  0.92745128  0.41905771  0.65130829     0.10400
C968        C  0.85441688  0.29236295  0.66991755    -0.15500
C969        C  0.83519812  0.26870706  0.69016429     0.03400
C970        C  0.80981063  0.28090412  0.71400303    -0.10800
C971        C  0.80550633  0.31695623  0.71733876    -0.00900
C972        C  0.82321194  0.34048777  0.69618638    -0.06000
H973        H  0.87398574  0.28256077  0.65190773     0.06400
H974        H  0.78633207  0.32701207  0.73572084     0.09800
Br975      Br  0.90385215  0.37843760  0.71056369    -0.05700
Br976      Br  0.86656090  0.37435364  0.54432642    -0.02700
Br977      Br  0.84641182  0.22050321  0.68570135     0.00200
Br978      Br  0.80927707  0.38846495  0.69824723    -0.04200
C979        C  0.89699550  0.39673837  0.90289525    -0.11600
C980        C  0.87808643  0.40922973  0.87427670     0.03900
C981        C  0.86052303  0.38590397  0.85274512    -0.12100
C982        C  0.86074637  0.34997809  0.85919772     0.18700
C983        C  0.87940981  0.33746512  0.88777576    -0.09200
C984        C  0.89721522  0.36067892  0.90917939    -0.02100
H985        H  0.84611995  0.39593902  0.83097445     0.05300
C986        C  0.84026499  0.32643172  0.83652368     0.20700
H987        H  0.91155157  0.35016507  0.93070771     0.10400
C988        C  0.85733153  0.30025625  0.81732018    -0.15500
C989        C  0.83834870  0.27809469  0.79557457     0.03400
C990        C  0.80174110  0.28279218  0.79158866    -0.10800
C991        C  0.78493019  0.30873165  0.81130254    -0.00900
C992        C  0.80355183  0.32998764  0.83373504    -0.06000
H993        H  0.88548227  0.29669524  0.81967288     0.06400
H994        H  0.75685323  0.31255360  0.80960121     0.09800
Br995      Br  0.88033131  0.28906595  0.89961537    -0.05700
Br996      Br  0.87352540  0.45782533  0.86392962    -0.02700
Br997      Br  0.86316123  0.24002249  0.77482763     0.00200
Br998      Br  0.77700278  0.36211939  0.86147657    -0.04200
C999        C  0.79776551  0.71919972  0.79815381    -0.11600
C1000       C  0.83463403  0.72327884  0.79842444     0.03900
C1001       C  0.85547374  0.70125853  0.81868329    -0.12100
C1002       C  0.83996165  0.67605534  0.83984163     0.18700
C1003       C  0.80320115  0.67427115  0.84213946    -0.09200
C1004       C  0.78250202  0.69573147  0.82164442    -0.02100
H1005       H  0.88380759  0.70391877  0.81810819     0.05300
C1006       C  0.86202924  0.65218674  0.86021036     0.20700
H1007       H  0.75438577  0.69213328  0.82271248     0.10400
C1008       C  0.86521500  0.65801329  0.89547623    -0.15500
C1009       C  0.88311758  0.63440775  0.91636818     0.03400
C1010       C  0.89873822  0.60426814  0.90183410    -0.10800
C1011       C  0.89547848  0.59863119  0.86632046    -0.00900
C1012       C  0.87719967  0.62217626  0.84559568    -0.06000
H1013       H  0.85287879  0.68070739  0.90694447     0.06400
H1014       H  0.90725436  0.57595451  0.85439121     0.09800
Br1015     Br  0.78013984  0.64142264  0.87154811    -0.01100
Br1016     Br  0.85746453  0.76010664  0.77399191    -0.02700
Br1017     Br  0.88321729  0.64442209  0.96464055     0.00200
Br1018     Br  0.87250884  0.61164829  0.79773782    -0.04200
C1019       C  0.90782389  0.61031016  0.60148373    -0.11600
C1020       C  0.87473213  0.62515300  0.59410852     0.03900
C1021       C  0.85895833  0.64869877  0.61718045    -0.12100
C1022       C  0.87580801  0.65832799  0.64766347     0.18700
C1023       C  0.90925320  0.64419918  0.65466531    -0.09200
C1024       C  0.92485062  0.62025527  0.63183200    -0.02100
H1025       H  0.83296654  0.65886521  0.61175379     0.05300
C1026       C  0.85607780  0.67946153  0.67354134     0.20700
H1027       H  0.95056953  0.60964232  0.63763239     0.10400
C1028       C  0.83898130  0.66208057  0.70026122    -0.15500
C1029       C  0.81565496  0.67943855  0.72241871     0.03400
C1030       C  0.80955502  0.71576007  0.71890831    -0.10800
C1031       C  0.82794662  0.73332316  0.69271603    -0.00900
C1032       C  0.85098092  0.71557639  0.67024632    -0.06000
H1033       H  0.84225953  0.63418089  0.70262014     0.06400
H1034       H  0.82341719  0.76087838  0.68897120     0.09800
Br1035     Br  0.93462650  0.65739144  0.69490794    -0.05700
Br1036     Br  0.84893934  0.61227834  0.55403908    -0.02700
Br1037     Br  0.78997812  0.64970620  0.75255602     0.00200
Br1038     Br  0.87434267  0.74138926  0.63491504    -0.04200
C1039       C  0.60562254  0.08498533  0.89804126    -0.11600
C1040       C  0.63094134  0.10809840  0.91124120     0.03900
C1041       C  0.65528309  0.12368641  0.88925835    -0.12100
C1042       C  0.65345046  0.11937330  0.85362077     0.18700
C1043       C  0.62769452  0.09711152  0.84010332    -0.09200
C1044       C  0.60438661  0.07976123  0.86230802    -0.02100
H1045       H  0.67439552  0.14140510  0.89990312     0.05300
C1046       C  0.67544611  0.14226599  0.83161263     0.20700
H1047       H  0.58502565  0.06241926  0.85153930     0.10400
C1048       C  0.70179774  0.12861874  0.80984260    -0.15500
C1049       C  0.72338002  0.15076322  0.79011502     0.03400
C1050       C  0.71848849  0.18723675  0.79178337    -0.10800
C1051       C  0.69388072  0.20021432  0.81572171    -0.00900
C1052       C  0.67190300  0.17851096  0.83443419    -0.06000
H1053       H  0.70592155  0.10077313  0.80858958     0.06400
H1054       H  0.69059299  0.22760365  0.81984454     0.09800
Br1055     Br  0.62199050  0.09123246  0.79164039    -0.05700
Br1056     Br  0.63106116  0.12389987  0.95800854    -0.02700
Br1057     Br  0.76097628  0.13008832  0.76402375     0.00200
Br1058     Br  0.63624763  0.20032185  0.86243795    -0.04200
C1059       C  0.59944509  0.09599192  0.59852724    -0.11600
C1060       C  0.62793112  0.07795536  0.61340660     0.03900
C1061       C  0.65036305  0.09509897  0.63619798    -0.12100
C1062       C  0.64510210  0.13025954  0.64455555     0.18700
C1063       C  0.61703614  0.14845781  0.62900207    -0.09200
C1064       C  0.59418948  0.13111941  0.60673086    -0.02100
H1065       H  0.67186439  0.08081593  0.64773867     0.05300
C1066       C  0.66961858  0.14751371  0.66884946     0.20700
H1067       H  0.57258967  0.14531010  0.59524982     0.10400
C1068       C  0.70524499  0.15081333  0.66001583    -0.15500
C1069       C  0.72876807  0.16831471  0.68152248     0.03400
C1070       C  0.71693253  0.18383941  0.71241943    -0.10800
C1071       C  0.68149538  0.17846652  0.72197417    -0.00900
C1072       C  0.65824362  0.16011046  0.70097618    -0.06000
H1073       H  0.71480847  0.13986984  0.63606915     0.06400
H1074       H  0.67098471  0.18980208  0.74524570     0.09800
Br1075     Br  0.60991479  0.19741730  0.63566125    -0.05700
Br1076     Br  0.63639607  0.02946277  0.60479300    -0.02700
Br1077     Br  0.77704672  0.16795158  0.66811020     0.00200
Br1078     Br  0.61122360  0.15265188  0.71751788    -0.04200
C1079       C  0.28874987  0.19624661  0.71338681    -0.11600
C1080       C  0.32403608  0.18557769  0.71807791     0.03900
C1081       C  0.34080008  0.16469723  0.69357476    -0.12100
C1082       C  0.32410567  0.15549407  0.66305012     0.18700
C1083       C  0.28862065  0.16509598  0.65852955    -0.09200
C1084       C  0.27134437  0.18525769  0.68357781    -0.02100
H1085       H  0.36797752  0.15714570  0.69747194     0.05300
C1086       C  0.34513117  0.13741315  0.63603962     0.20700
H1087       H  0.24453014  0.19367686  0.67909607     0.10400
C1088       C  0.33619962  0.10356586  0.62609841    -0.15500
C1089       C  0.35749910  0.08476366  0.60311708     0.03400
C1090       C  0.38841558  0.09981862  0.58966111    -0.10800
C1091       C  0.39727569  0.13366746  0.59936693    -0.00900
C1092       C  0.37588155  0.15254593  0.62214768    -0.06000
H1093       H  0.31318707  0.09129363  0.63713497     0.06400
H1094       H  0.42103790  0.14541215  0.58930808     0.09800
Br1095     Br  0.26347081  0.15374558  0.61759438    -0.05700
Br1096     Br  0.35323477  0.20143130  0.75431043    -0.02700
Br1097     Br  0.34475599  0.03758704  0.59340652     0.00200
Br1098     Br  0.38984344  0.19900741  0.63328177    -0.04200
C1099       C  0.27864190  0.19493755  0.79359100    -0.11600
C1100       C  0.27621707  0.15864250  0.78852330     0.03900
C1101       C  0.29742643  0.13579134  0.80783484    -0.12100
C1102       C  0.32024404  0.14840391  0.83327947     0.18700
C1103       C  0.31985705  0.18430318  0.84045735    -0.09200
C1104       C  0.29926611  0.20690133  0.82096645    -0.02100
H1105       H  0.29641343  0.10816095  0.80266562     0.05300
C1106       C  0.34509525  0.12467748  0.85166711     0.20700
H1107       H  0.30127660  0.23438633  0.82621428     0.10400
C1108       C  0.38143019  0.13122703  0.84977276    -0.15500
C1109       C  0.40551566  0.11290442  0.87015434     0.03400
C1110       C  0.39371877  0.08620563  0.89214592    -0.10800
C1111       C  0.35748570  0.07881544  0.89313697    -0.00900
C1112       C  0.33330375  0.09772230  0.87330305    -0.06000
H1113       H  0.39096762  0.15198020  0.83345667     0.06400
H1114       H  0.34776684  0.05846826  0.90983119     0.09800
Br1115     Br  0.34754372  0.20442660  0.87630054    -0.05700
Br1116     Br  0.24300220  0.13896271  0.75736243    -0.02700
Br1117     Br  0.45331478  0.12858909  0.86984247     0.00200
Br1118     Br  0.28431677  0.08716404  0.87849368    -0.04200
C1119       C  0.60194493  0.91761204  0.61334610    -0.11600
C1120       C  0.59276040  0.90018360  0.64413584     0.03900
C1121       C  0.61892106  0.88380358  0.66364500    -0.12100
C1122       C  0.65418244  0.88364587  0.65291155     0.18700
C1123       C  0.66348467  0.90105303  0.62258921    -0.09200
C1124       C  0.63769372  0.91819905  0.60346666    -0.02100
H1125       H  0.61141865  0.86928659  0.68634098     0.05300
C1126       C  0.67908351  0.85947260  0.66968886     0.20700
H1127       H  0.64570806  0.93123234  0.58009409     0.10400
C1128       C  0.68172551  0.82594490  0.65650693    -0.15500
C1129       C  0.70080170  0.80004072  0.67326978     0.03400
C1130       C  0.71829813  0.80753663  0.70474233    -0.10800
C1131       C  0.71861481  0.84263261  0.71555853    -0.00900
C1132       C  0.69848929  0.86820735  0.69890570    -0.06000
H1133       H  0.66732358  0.81949208  0.63346941     0.06400
H1134       H  0.73315484  0.85000794  0.73815316     0.09800
Br1135     Br  0.71078108  0.89996081  0.60517069    -0.05700
Br1136     Br  0.54522661  0.89374563  0.65952225    -0.02700
Br1137     Br  0.69742027  0.75588331  0.65086043     0.00200
Br1138     Br  0.69692892  0.91425075  0.71757299    -0.04200
C1139       C  0.60247936  0.89714781  0.90873711    -0.11600
C1140       C  0.60769983  0.86091409  0.90889580     0.03900
C1141       C  0.62941958  0.84536339  0.88389243    -0.12100
C1142       C  0.64658233  0.86559050  0.85890458     0.18700
C1143       C  0.64207348  0.90191209  0.85943833    -0.09200
C1144       C  0.62003850  0.91735502  0.88410742    -0.02100
H1145       H  0.63279228  0.81738279  0.88378736     0.05300
C1146       C  0.66817203  0.84810564  0.83202008     0.20700
H1147       H  0.61627736  0.94529211  0.88385859     0.10400
C1148       C  0.65149119  0.83390675  0.80339166    -0.15500
C1149       C  0.67024666  0.81378883  0.77940095     0.03400
C1150       C  0.70660040  0.80709939  0.78407601    -0.10800
C1151       C  0.72346388  0.82280234  0.81201871    -0.00900
C1152       C  0.70467882  0.84349090  0.83559140    -0.06000
H1153       H  0.62338837  0.83740927  0.80039781     0.06400
H1154       H  0.75123029  0.81808799  0.81608289     0.09800
Br1155     Br  0.66499109  0.93131160  0.82661435    -0.05700
Br1156     Br  0.58522283  0.83181934  0.94230695    -0.02700
Br1157     Br  0.64328069  0.79315777  0.74359173     0.00200
Br1158     Br  0.72950889  0.86404169  0.87302380    -0.04200
C1159       C  0.28086924  0.79701661  0.79807954    -0.11600
C1160       C  0.29716074  0.78720004  0.82963352     0.03900
C1161       C  0.31817999  0.81075680  0.84729089    -0.12100
C1162       C  0.32311923  0.84455663  0.83566086     0.18700
C1163       C  0.30460991  0.85585365  0.80664945    -0.09200
C1164       C  0.28294936  0.83255245  0.78892846    -0.02100
H1165       H  0.33128295  0.80251317  0.87056055     0.05300
C1166       C  0.34795258  0.86671208  0.85489475     0.20700
H1167       H  0.26880062  0.84216775  0.76689084     0.10400
C1168       C  0.38396307  0.85864838  0.85339326    -0.15500
C1169       C  0.40791208  0.87457464  0.87549507     0.03400
C1170       C  0.39595316  0.89953972  0.89962006    -0.10800
C1171       C  0.35984078  0.90765348  0.90087097    -0.00900
C1172       C  0.33594130  0.89135299  0.87898917    -0.06000
H1173       H  0.39326900  0.83872884  0.83582133     0.06400
H1174       H  0.34999832  0.92662047  0.91915074     0.09800
Br1175     Br  0.30998192  0.90199755  0.78898126    -0.05700
Br1176     Br  0.29322343  0.74396812  0.85348303    -0.02700
Br1177     Br  0.45569930  0.85824706  0.87352033     0.00200
Br1178     Br  0.28686412  0.90177700  0.88450009    -0.04200
C1179       C  0.29195860  0.80106774  0.71940576    -0.11600
C1180       C  0.27726937  0.82168266  0.69334856     0.03900
C1181       C  0.29893693  0.84234840  0.67265063    -0.12100
C1182       C  0.33557059  0.84227117  0.67686168     0.18700
C1183       C  0.35026366  0.82234655  0.70360557    -0.09200
C1184       C  0.32840333  0.80240642  0.72494677    -0.02100
H1185       H  0.28722704  0.85797704  0.65259933     0.05300
C1186       C  0.35767409  0.86309253  0.65293084     0.20700
H1187       H  0.34010250  0.78615233  0.74453541     0.10400
C1188       C  0.37467343  0.89285448  0.66506088    -0.15500
C1189       C  0.39374256  0.91442681  0.64277338     0.03400
C1190       C  0.39642830  0.90618878  0.60742964    -0.10800
C1191       C  0.37922890  0.87643169  0.59533493    -0.00900
C1192       C  0.36013238  0.85492067  0.61770821    -0.06000
H1193       H  0.37229151  0.89984973  0.69191251     0.06400
H1194       H  0.38095909  0.86963788  0.56840052     0.09800
Br1195     Br  0.40012033  0.81896994  0.70993501    -0.05700
Br1196     Br  0.22764846  0.82213635  0.68510488    -0.02700
Br1197     Br  0.41255097  0.95635078  0.66188719     0.00200
Br1198     Br  0.33850664  0.81412683  0.59918939    -0.04200
C1199       C  0.41180004  0.59480453  0.90233551    -0.11600
C1200       C  0.40884204  0.58428352  0.86799585     0.03900
C1201       C  0.39050927  0.60526112  0.84494960    -0.12100
C1202       C  0.37519777  0.63656477  0.85601756     0.18700
C1203       C  0.37907560  0.64746462  0.89021045    -0.09200
C1204       C  0.39765065  0.62665847  0.91308705    -0.02100
H1205       H  0.38732783  0.59674805  0.81865755     0.05300
C1206       C  0.35142755  0.65515915  0.83298691     0.20700
H1207       H  0.40041584  0.63495883  0.93950355     0.10400
C1208       C  0.31545001  0.64914395  0.83650465    -0.15500
C1209       C  0.29134567  0.66651647  0.81593813     0.03400
C1210       C  0.30324550  0.69007006  0.79070466    -0.10800
C1211       C  0.33960234  0.69638195  0.78772211    -0.00900
C1212       C  0.36368110  0.67895714  0.80850848    -0.06000
H1213       H  0.30606851  0.63108250  0.85579936     0.06400
H1214       H  0.34929701  0.71546380  0.76962765     0.09800
Br1215     Br  0.35845593  0.68986754  0.90694598    -0.05700
Br1216     Br  0.42955754  0.54175049  0.85173589    -0.02700
Br1217     Br  0.24309426  0.65721153  0.82513499     0.00200
Br1218     Br  0.41273552  0.68905723  0.80343467    -0.04200
C1219       C  0.31170631  0.69439852  0.71329209    -0.11600
C1220       C  0.31327394  0.65787285  0.71135932     0.03900
C1221       C  0.33920247  0.64193551  0.69117650    -0.12100
C1222       C  0.36451305  0.66171070  0.67362501     0.18700
C1223       C  0.36293823  0.69820986  0.67562220    -0.09200
C1224       C  0.33631273  0.71409990  0.69483109    -0.02100
H1225       H  0.33940857  0.61387685  0.68886465     0.05300
C1226       C  0.39074508  0.64362955  0.65180068     0.20700
H1227       H  0.33515519  0.74204468  0.69554905     0.10400
C1228       C  0.39158050  0.65066561  0.61645453    -0.15500
C1229       C  0.41317869  0.63137191  0.59440192     0.03400
C1230       C  0.43400357  0.60431113  0.60768464    -0.10800
C1231       C  0.43384421  0.59764310  0.64294267    -0.00900
C1232       C  0.41265003  0.61725455  0.66512529    -0.06000
H1233       H  0.37430991  0.67029402  0.60578202     0.06400
H1234       H  0.44956103  0.57650923  0.65311780     0.09800
Br1235     Br  0.39693163  0.72769144  0.65369075    -0.05700
Br1236     Br  0.27955224  0.62844507  0.73362476    -0.02700
Br1237     Br  0.41096593  0.64081080  0.54607577     0.00200
Br1238     Br  0.41427000  0.60657868  0.71322484    -0.04200
C1239       C  0.59366963  0.57326756  0.87688337    -0.11600
C1240       C  0.57862184  0.59357598  0.85080389     0.03900
C1241       C  0.60057786  0.61172811  0.82848624    -0.12100
C1242       C  0.63717742  0.61026927  0.83237031     0.18700
C1243       C  0.65215889  0.58856491  0.85724051    -0.09200
C1244       C  0.63033740  0.56975360  0.87888064    -0.02100
H1245       H  0.58910374  0.62866820  0.80933395     0.05300
C1246       C  0.65831126  0.63659768  0.81523896     0.20700
H1247       H  0.64221774  0.55430107  0.89897839     0.10400
C1248       C  0.65387047  0.67096404  0.82590661    -0.15500
C1249       C  0.67205806  0.69772831  0.80999065     0.03400
C1250       C  0.69535855  0.69014798  0.78253669    -0.10800
C1251       C  0.70051837  0.65513391  0.77298059    -0.00900
C1252       C  0.68207536  0.62846169  0.78887555    -0.06000
H1253       H  0.63554779  0.67702152  0.84652906     0.06400
H1254       H  0.71821526  0.64820821  0.75241101     0.09800
Br1255     Br  0.70173874  0.58705311  0.86576116    -0.05700
Br1256     Br  0.52873617  0.59806808  0.84487180    -0.02700
Br1257     Br  0.66061714  0.74337942  0.82599320     0.00200
Br1258     Br  0.68929146  0.58174190  0.77299891    -0.04200
C1259       C  0.70523117  0.69184904  0.70394731    -0.11600
C1260       C  0.66900539  0.68380862  0.70222357     0.03900
C1261       C  0.65738975  0.66011829  0.67789949    -0.12100
C1262       C  0.68092738  0.64467527  0.65476273     0.18700
C1263       C  0.71676919  0.65258595  0.65604402    -0.09200
C1264       C  0.72868367  0.67579472  0.68070499    -0.02100
H1265       H  0.62957297  0.65437670  0.67630342     0.05300
C1266       C  0.66657687  0.62232259  0.62809660     0.20700
H1267       H  0.75641499  0.68160421  0.68128614     0.10400
C1268       C  0.65944062  0.63697066  0.59603722    -0.15500
C1269       C  0.63940125  0.61890268  0.57226507     0.03400
C1270       C  0.62684917  0.58558538  0.58055197    -0.10800
C1271       C  0.63593889  0.57004429  0.61171053    -0.00900
C1272       C  0.65529596  0.58849079  0.63579919    -0.06000
H1273       H  0.66797719  0.66315957  0.59023088     0.06400
H1274       H  0.62615273  0.54444305  0.61813867     0.09800
Br1275     Br  0.75011831  0.63268376  0.62445984    -0.05700
Br1276     Br  0.63311135  0.70525520  0.72980116    -0.02700
Br1277     Br  0.62934069  0.64105590  0.52928280     0.00200
Br1278     Br  0.66359824  0.56772462  0.67970494    -0.04200
C1279       C  0.68928104  0.29498368  0.77399459    -0.11600
C1280       C  0.69192926  0.33144769  0.77707201     0.03900
C1281       C  0.66751569  0.34977616  0.79711895    -0.12100
C1282       C  0.63906392  0.33274395  0.81252668     0.18700
C1283       C  0.63357979  0.29744959  0.80528959    -0.09200
C1284       C  0.65920959  0.27871389  0.78727706    -0.02100
H1285       H  0.67105353  0.37740145  0.80115798     0.05300
C1286       C  0.61661826  0.35192498  0.83720295     0.20700
H1287       H  0.65499322  0.25136289  0.78282778     0.10400
C1288       C  0.59942592  0.38242731  0.82665217    -0.15500
C1289       C  0.58106008  0.40305714  0.85033914     0.03400
C1290       C  0.57887086  0.39263730  0.88484606    -0.10800
C1291       C  0.59545090  0.36192586  0.89534162    -0.00900
C1292       C  0.61493987  0.34196298  0.87202463    -0.06000
H1293       H  0.60116258  0.39068963  0.80012986     0.06400
H1294       H  0.59497194  0.35456732  0.92217208     0.09800
Br1295     Br  0.59085238  0.27434531  0.81801966    -0.05700
Br1296     Br  0.72712248  0.35837667  0.75458006    -0.02700
Br1297     Br  0.56012102  0.44564567  0.83477839     0.00200
Br1298     Br  0.64201161  0.30383852  0.88994580    -0.04200
C1299       C  0.60547396  0.39971471  0.59232829    -0.11600
C1300       C  0.61768905  0.41076676  0.62436888     0.03900
C1301       C  0.63946497  0.38880033  0.64314012    -0.12100
C1302       C  0.64842485  0.35590403  0.63026851     0.18700
C1303       C  0.63521063  0.34451336  0.59871450    -0.09200
C1304       C  0.61403849  0.36666722  0.57974838    -0.02100
H1305       H  0.64856718  0.39685597  0.66818343     0.05300
C1306       C  0.66809265  0.33223655  0.65195648     0.20700
H1307       H  0.60423897  0.35812732  0.55511589     0.10400
C1308       C  0.64926992  0.30758637  0.67053770    -0.15500
C1309       C  0.66642048  0.28517680  0.69273358     0.03400
C1310       C  0.70310171  0.28801800  0.69715881    -0.10800
C1311       C  0.72207320  0.31137729  0.67665420    -0.00900
C1312       C  0.70477007  0.33383610  0.65437066    -0.06000
H1313       H  0.62099594  0.30578807  0.66761270     0.06400
H1314       H  0.75029153  0.31290217  0.67854153     0.09800
Br1315     Br  0.64467001  0.29878745  0.58109803    -0.05700
Br1316     Br  0.60296446  0.45409473  0.64437134    -0.02700
Br1317     Br  0.63779832  0.25033533  0.71326857     0.00200
Br1318     Br  0.73185658  0.36638186  0.62810757    -0.04200
C1319       C  0.38406656  0.40637354  0.92213278    -0.11600
C1320       C  0.36092624  0.42258289  0.89894684     0.03900
C1321       C  0.33726351  0.40235837  0.88041440    -0.12100
C1322       C  0.33620399  0.36626922  0.88502204     0.18700
C1323       C  0.35709835  0.35062446  0.91035763    -0.09200
C1324       C  0.38098102  0.37065864  0.92854239    -0.02100
H1325       H  0.32156220  0.41441600  0.86056975     0.05300
C1326       C  0.32070268  0.34482864  0.85797949     0.20700
H1327       H  0.39783812  0.35806283  0.94711068     0.10400
C1328       C  0.34393023  0.32793616  0.83553381    -0.15500
C1329       C  0.33170046  0.30747427  0.80883705     0.03400
C1330       C  0.29515646  0.30426613  0.80356435    -0.10800
C1331       C  0.27184288  0.32112855  0.82651689    -0.00900
C1332       C  0.28433442  0.34148522  0.85347906    -0.06000
H1333       H  0.37204553  0.33041101  0.83917825     0.06400
H1334       H  0.24372581  0.31881980  0.82330094     0.09800
Br1335     Br  0.35552015  0.30157235  0.91917602    -0.05700
Br1336     Br  0.36334017  0.47124314  0.88851573    -0.02700
Br1337     Br  0.36716392  0.28312218  0.78345680     0.00200
Br1338     Br  0.25107558  0.36348692  0.88376263    -0.04200
C1339       C  0.31363185  0.30809165  0.72530136    -0.11600
C1340       C  0.31139452  0.34461987  0.72842317     0.03900
C1341       C  0.33514152  0.36558928  0.71053566    -0.12100
C1342       C  0.36004451  0.35104160  0.68796359     0.18700
C1343       C  0.36243977  0.31458669  0.68501366    -0.09200
C1344       C  0.33931189  0.29353951  0.70352937    -0.02100
H1345       H  0.33288422  0.39358447  0.71274850     0.05300
C1346       C  0.38117442  0.37417313  0.66563048     0.20700
H1347       H  0.34090301  0.26558687  0.70040615     0.10400
C1348       C  0.41803673  0.37258601  0.66675384    -0.15500
C1349       C  0.43860433  0.39139332  0.64342521     0.03400
C1350       C  0.42214932  0.41301904  0.61900096    -0.10800
C1351       C  0.38542431  0.41620481  0.61937045    -0.00900
C1352       C  0.36490450  0.39681495  0.64204169    -0.06000
H1353       H  0.43083328  0.35594153  0.68533812     0.06400
H1354       H  0.37238246  0.43261308  0.60074776     0.09800
Br1355     Br  0.39503310  0.29216239  0.65431069    -0.05700
Br1356     Br  0.27354045  0.36789264  0.75182176    -0.02700
Br1357     Br  0.48877679  0.38695855  0.64691036     0.00200
Br1358     Br  0.31477889  0.40051099  0.63746004    -0.04200
loop_ 
_geom_bond_atom_site_label_1 
_geom_bond_atom_site_label_2 
_geom_bond_distance 
_geom_bond_site_symmetry_2 
_ccdc_geom_bond_type 
C1           N19   1.353       .  A
C1           C38   1.458       .  S
C1          C671   1.475       .  S
N2           N19   1.324       .  A
N2           N24   1.318       .  A
N2          Co39   2.087       .  S
C3           N28   1.337       .  A
C3           C41   1.452       .  S
C3           H48   1.082       .  S
H4           C45   1.081       .  S
C5           N29   1.334       .  A
C5            C9   1.451       .  S
C5           H34   1.082       .  S
Co6          N24   2.070       .  S
Co6          N14   2.062       .  S
Co6         N725   2.073   1_554  S
Co6         N701   2.081   1_554  S
Co6         Cl50   2.447   1_554  S
N7           C45   1.336       .  A
N7           N14   1.317       .  A
N7         Co687   2.058   1_554  S
Co8          N28   2.073       .  S
Co8          N15   2.051       .  S
Co8         N686   2.058       .  S
Co8         N690   2.074       .  S
Co8        Cl729   2.432       .  S
C9           N47   1.346       .  A
C9          C591   1.455       .  S
N10          N17   1.319       .  A
N10          N40   1.324       .  A
N10        Co722   2.077   1_554  S
N11          N29   1.318       .  A
N11          N47   1.323       .  A
N11        Co687   2.074   1_554  S
N12          C41   1.351       .  A
N12          N22   1.325       .  A
H13          C38   1.081       .  S
N14          N35   1.318       .  A
N15          N33   1.317       .  A
N15          N20   1.316       .  A
C16          N20   1.343       .  A
C16          C44   1.461       .  S
C16         C560   1.457       .  S
N17          C32   1.335       .  A
N17         Co39   2.074       .  S
C18          N46   1.336       .  A
C18          C21   1.459       .  S
C18          H52   1.082       .  S
C21          N42   1.347       .  A
C21         C640   1.467       .  S
N22          N28   1.318       .  A
N22        Co685   2.081       .  S
N23          C49   1.341       .  A
N23          N25   1.319       .  A
N23        Co718   2.086       .  S
N24          C38   1.338       .  A
N25          N53   1.319       .  A
N25         Co43   2.054       .  S
H26          C49   1.081       .  S
H27          C44   1.081       .  S
N29        Co722   2.060   1_554  S
N30          N42   1.323       .  A
N30          N46   1.319       .  A
N30        Co718   2.074       .  S
C31          N35   1.344       .  A
C31          C45   1.452       .  S
C31         C620   1.445       .  S
C32          C51   1.453       .  S
C32          H36   1.082       .  S
N33          C44   1.338       .  A
N33         Co43   2.074       .  S
C37          N53   1.341       .  A
C37          C49   1.458       .  S
C37         C520   1.454       .  S
Co39        N702   2.086   1_554  S
Co39        N709   2.074   1_554  S
Co39        Cl50   2.434   1_554  S
N40          C51   1.349       .  A
C41         C611   1.463       .  S
Co43        N689   2.077       .  S
Co43        N708   2.060       .  S
Co43       Cl729   2.449       .  S
N46        Co685   2.073       .  S
Cl50       Co687   2.432       .  S
Cl50       Co722   2.449       .  S
C51         C551   1.460       .  S
C54          N72   1.352       .  A
C54          C91   1.470       .  S
C54         C440   1.494       .  S
N55          N72   1.323       .  A
N55          N77   1.319       .  A
N55         Co92   2.082       .  S
C56          N81   1.341       .  A
C56          C94   1.460       .  S
C56         H101   1.082       .  S
H57          C98   1.082       .  S
C58          N82   1.338       .  A
C58          C62   1.460       .  S
C58          H87   1.081       .  S
Co59         N77   2.091   1_545  S
Co59         N67   2.090   1_545  S
Co59         N99   2.089       .  S
Co59         N75   2.092       .  S
Co59       Cl103   2.458   1_545  S
N60          C98   1.347       .  A
N60          N67   1.323       .  A
N60         Co61   2.106   1_554  S
Co61         N81   2.086   1_566  S
Co61        N743   2.098       .  S
Co61        N747   2.096   1_565  S
Co61       Cl103   2.457   1_556  S
C62         N100   1.356       .  A
C62         C491   1.488       .  S
N63          N70   1.320       .  A
N63          N93   1.324       .  A
N63         Co96   2.093       .  S
N64          N82   1.320       .  A
N64         N100   1.327       .  A
N64        Co740   2.098       .  S
N65          C94   1.351       .  A
N65          N75   1.326       .  A
H66          C91   1.079       .  S
N67          N88   1.325       .  A
N68          N86   1.322       .  A
N68          N73   1.326       .  A
N68        Co740   2.096   1_545  S
C69          N73   1.352       .  A
C69          C97   1.470       .  S
C69         C431   1.493       .  S
N70          C85   1.344       .  A
N70        Co771   2.093       .  S
C71          N99   1.343       .  A
C71          C74   1.462       .  S
C71         H105   1.082       .  S
C74          N95   1.352       .  A
C74         C380   1.481       .  S
N75          N81   1.321       .  A
N76         C102   1.334       .  A
N76          N78   1.320       .  A
N76        Co771   2.073   1_545  S
N77          C91   1.343       .  A
N78         N106   1.329       .  A
N78         Co96   2.098   1_545  S
H79         C102   1.080       .  S
H80          C97   1.081       .  S
N82         Co96   2.080       .  S
N83          N95   1.326       .  A
N83          N99   1.321       .  A
N83         Co92   2.097   1_545  S
C84          N88   1.349       .  A
C84          C98   1.467       .  S
C84         C511   1.489       .  S
C85         C104   1.465       .  S
C85          H89   1.082       .  S
N86          C97   1.346       .  A
N86         Co96   2.103   1_545  S
C90         N106   1.356       .  A
C90         C102   1.458       .  S
C90         C360   1.487       .  S
Co92        N749   2.093   1_554  S
Co92        N755   2.073   1_564  S
Co92       Cl103   2.449       .  S
N93         C104   1.351       .  A
C94         C411   1.476       .  S
Co96       Cl782   2.458       .  S
Cl103      Co775   2.458   1_554  S
C104        C460   1.477       .  S
C107        N125   1.353       .  A
C107        C144   1.468       .  S
C107        C280   1.494       .  S
N108        N125   1.327       .  A
N108        N130   1.323       .  A
N108       Co145   2.102       .  S
C109        N134   1.339       .  A
C109        C147   1.460       .  S
C109        H154   1.081       .  S
H110        C151   1.081       .  S
C111        N135   1.342       .  A
C111        C115   1.467       .  S
C111        H140   1.081       .  S
Co112       N130   2.103       .  S
Co112       N120   2.104       .  S
Co112       N152   2.091   1_655  S
Co112       N128   2.100   1_655  S
Co112      Cl156   2.470   1_554  S
N113        C151   1.345       .  A
N113        N120   1.322       .  A
N113       Co114   2.100   1_554  S
Co114       N134   2.081   1_656  S
Co114       N796   2.077       .  S
Co114       N800   2.101   1_655  S
Co114      Cl156   2.451       .  S
C115        N153   1.348       .  A
C115        C331   1.485       .  S
N116        N123   1.320       .  A
N116        N146   1.327       .  A
N116       Co149   2.096       .  S
N117        N135   1.320       .  A
N117        N153   1.321       .  A
N117       Co793   2.077       .  S
N118        C147   1.355       .  A
N118        N128   1.327       .  A
H119        C144   1.082       .  S
N120        N141   1.329       .  A
N121        N139   1.321       .  A
N121        N126   1.329       .  A
N121       Co793   2.101   1_455  S
C122        N126   1.354       .  A
C122        C150   1.465       .  S
C122        C220   1.493       .  S
N123        C138   1.341       .  A
N123       Co824   2.087       .  S
C124        N152   1.343       .  A
C124        C127   1.467       .  S
C124        H158   1.081       .  S
C127        N148   1.348       .  A
C127        C260   1.489       .  S
N128        N134   1.321       .  A
N129        C155   1.346       .  A
N129        N131   1.321       .  A
N129       Co824   2.106   1_455  S
N130        C144   1.345       .  A
N131        N159   1.327       .  A
N131       Co149   2.092   1_455  S
H132        C155   1.082       .  S
H133        C150   1.081       .  S
N135       Co149   2.090       .  S
N136        N148   1.322       .  A
N136        N152   1.321       .  A
N136       Co145   2.082   1_455  S
C137        N141   1.355       .  A
C137        C151   1.462       .  S
C137        C340   1.489       .  S
C138        C157   1.466       .  S
C138        H142   1.081       .  S
N139        C150   1.342       .  A
N139       Co149   2.094   1_455  S
C143        N159   1.352       .  A
C143        C155   1.468       .  S
C143        C240   1.490       .  S
Co145       N802   2.087   1_554  S
Co145       N808   2.106   1_654  S
Co145      Cl156   2.449   1_554  S
N146        C157   1.354       .  A
C147        C211   1.484       .  S
Co149      Cl835   2.463       .  S
Cl156      Co828   2.463       .  S
C157        C300   1.494       .  S
C160        H161   1.102       .  S
C160        C166   1.539       .  S
C160        C165   1.544       .  S
C160        C164   1.545       .  S
C162        H163   1.111       .  S
C162        C168   1.544       .  S
C162        C167   1.534       .  S
C162        C169   1.545       .  S
C164        C167   1.376       .  D
C164        C660   1.483       .  S
C165        C168   1.388       .  D
C165        C271   1.519       .  S
C166        C169   1.380       .  D
C166        C400   1.496       .  S
C167        C651   1.488       .  S
C168        C251   1.499       .  S
C169        C420   1.505       .  S
C170        H171   1.110       .  S
C170        C176   1.561       .  S
C170        C175   1.558       .  S
C170        C174   1.535       .  S
C172        H173   1.108       .  S
C172        C178   1.544       .  S
C172        C177   1.546       .  S
C172        C179   1.536       .  S
C174        C177   1.369       .  D
C174        C631   1.473       .  S
C175        C178   1.389       .  D
C175        C391   1.517       .  S
C176        C179   1.382       .  D
C176        C291   1.509       .  S
C177        C600   1.490       .  S
C178        C371   1.510       .  S
C179        C311   1.505       .  S
C180        H181   1.112       .  S
C180        C186   1.532       .  S
C180        C185   1.539       .  S
C180        C184   1.528       .  S
C182        H183   1.100       .  S
C182        C188   1.551       .  S
C182        C187   1.548       .  S
C182        C189   1.551       .  S
C184        C187   1.374       .  D
C184        C540   1.483       .  S
C185        C188   1.388       .  D
C185        C500   1.490       .  S
C186        C189   1.375       .  D
C186        C200   1.495       .  S
C187        C531   1.487       .  S
C188        C480   1.525       .  S
C189        C231   1.497       .  S
C190        H191   1.104       .  S
C190        C196   1.547       .  S
C190        C195   1.543       .  S
C190        C194   1.540       .  S
C192        H193   1.109       .  S
C192        C198   1.544       .  S
C192        C197   1.538       .  S
C192        C199   1.541       .  S
C194        C197   1.379       .  D
C194        C580   1.485       .  S
C195        C198   1.382       .  D
C195        C351   1.510       .  S
C196        C199   1.384       .  D
C196        C451   1.517       .  S
C197        C571   1.488       .  S
C198        C320   1.499       .  S
C199        C471   1.501       .  S
C200        C201   1.409       .  A
C200        C205   1.406       .  A
C201        C202   1.405       .  A
C201       Br217   1.915       .  S
C202        H206   1.083       .  S
C202        C203   1.407       .  A
C203        C207   1.487       .  S
C203        C204   1.408       .  A
C204        C205   1.396       .  A
C204       Br216   1.921       .  S
C205        H208   1.079       .  S
C207        C209   1.404       .  A
C207        C213   1.410       .  A
C209        H214   1.083       .  S
C209        C210   1.402       .  A
C210        C211   1.413       .  A
C210       Br218   1.920       .  S
C211        C212   1.405       .  A
C212        H215   1.083       .  S
C212        C213   1.401       .  A
C213       Br219   1.920       .  S
C220        C221   1.417       .  A
C220        C225   1.406       .  A
C221        C222   1.404       .  A
C221       Br237   1.920       .  S
C222        H226   1.084       .  S
C222        C223   1.403       .  A
C223        C227   1.495       .  S
C223        C224   1.413       .  A
C224        C225   1.407       .  A
C224       Br236   1.919       .  S
C225        H228   1.084       .  S
C227        C229   1.407       .  A
C227        C233   1.412       .  A
C229        H234   1.083       .  S
C229        C230   1.406       .  A
C230        C231   1.409       .  A
C230       Br238   1.917       .  S
C231        C232   1.405       .  A
C232        H235   1.083       .  S
C232        C233   1.403       .  A
C233       Br239   1.919       .  S
C240        C241   1.411       .  A
C240        C245   1.408       .  A
C241        C242   1.405       .  A
C241       Br257   1.918       .  S
C242        H246   1.083       .  S
C242        C243   1.405       .  A
C243        C247   1.491       .  S
C243        C244   1.409       .  A
C244        C245   1.405       .  A
C244       Br256   1.919       .  S
C245        H248   1.083       .  S
C247        C249   1.405       .  A
C247        C253   1.411       .  A
C249        H254   1.083       .  S
C249        C250   1.405       .  A
C250        C251   1.409       .  A
C250       Br258   1.918       .  S
C251        C252   1.407       .  A
C252        H255   1.081       .  S
C252        C253   1.402       .  A
C253       Br259   1.918       .  S
C260        C261   1.421       .  A
C260        C265   1.406       .  A
C261        C262   1.401       .  A
C261       Br277   1.922       .  S
C262        H266   1.084       .  S
C262        C263   1.399       .  A
C263        C267   1.480       .  S
C263        C264   1.407       .  A
C264        C265   1.399       .  A
C264       Br276   1.919       .  S
C265        H268   1.083       .  S
C267        C269   1.392       .  A
C267        C273   1.403       .  A
C269        H274   1.085       .  S
C269        C270   1.397       .  A
C270        C271   1.431       .  A
C270       Br278   1.915       .  S
C271        C272   1.414       .  A
C272        H275   1.082       .  S
C272        C273   1.403       .  A
C273       Br279   1.916       .  S
C280        C281   1.414       .  A
C280        C285   1.408       .  A
C281        C282   1.406       .  A
C281       Br297   1.919       .  S
C282        H286   1.083       .  S
C282        C283   1.404       .  A
C283        C287   1.494       .  S
C283        C284   1.412       .  A
C284        C285   1.405       .  A
C284       Br296   1.921       .  S
C285        H288   1.083       .  S
C287        C289   1.406       .  A
C287        C293   1.408       .  A
C289        H294   1.085       .  S
C289        C290   1.409       .  A
C290        C291   1.413       .  A
C290       Br298   1.908       .  S
C291        C292   1.402       .  A
C292        H295   1.088       .  S
C292        C293   1.397       .  A
C293       Br299   1.919       .  S
C300        C301   1.415       .  A
C300        C305   1.409       .  A
C301        C302   1.404       .  A
C301       Br317   1.920       .  S
C302        H306   1.084       .  S
C302        C303   1.405       .  A
C303        C307   1.492       .  S
C303        C304   1.409       .  A
C304        C305   1.402       .  A
C304       Br316   1.919       .  S
C305        H308   1.082       .  S
C307        C309   1.407       .  A
C307        C313   1.407       .  A
C309        H314   1.083       .  S
C309        C310   1.408       .  A
C310        C311   1.413       .  A
C310       Br318   1.914       .  S
C311        C312   1.407       .  A
C312        H315   1.080       .  S
C312        C313   1.396       .  A
C313       Br319   1.920       .  S
C320        C321   1.412       .  A
C320        C325   1.411       .  A
C321        C322   1.404       .  A
C321       Br337   1.916       .  S
C322        H326   1.083       .  S
C322        C323   1.403       .  A
C323        C327   1.477       .  S
C323        C324   1.402       .  A
C324        C325   1.394       .  A
C324       Br336   1.918       .  S
C325        H328   1.080       .  S
C327        C329   1.399       .  A
C327        C333   1.406       .  A
C329        H334   1.084       .  S
C329        C330   1.398       .  A
C330        C331   1.416       .  A
C330       Br338   1.921       .  S
C331        C332   1.408       .  A
C332        H335   1.082       .  S
C332        C333   1.400       .  A
C333       Br339   1.919       .  S
C340        C341   1.411       .  A
C340        C345   1.407       .  A
C341        C342   1.405       .  A
C341       Br357   1.917       .  S
C342        H346   1.083       .  S
C342        C343   1.405       .  A
C343        C347   1.491       .  S
C343        C344   1.409       .  A
C344        C345   1.407       .  A
C344       Br356   1.917       .  S
C345        H348   1.083       .  S
C347        C349   1.397       .  A
C347        C353   1.408       .  A
C349        H354   1.084       .  S
C349        C350   1.400       .  A
C350        C351   1.422       .  A
C350       Br358   1.908       .  S
C351        C352   1.409       .  A
C352        H355   1.083       .  S
C352        C353   1.408       .  A
C353       Br359   1.915       .  S
C360        C361   1.414       .  A
C360        C365   1.408       .  A
C361        C362   1.395       .  A
C361       Br377   1.921       .  S
C362        H366   1.084       .  S
C362        C363   1.401       .  A
C363        C367   1.487       .  S
C363        C364   1.410       .  A
C364        C365   1.406       .  A
C364       Br376   1.917       .  S
C365        H368   1.083       .  S
C367        C369   1.408       .  A
C367        C373   1.405       .  A
C369        H374   1.083       .  S
C369        C370   1.411       .  A
C370        C371   1.416       .  A
C370       Br378   1.918       .  S
C371        C372   1.406       .  A
C372        H375   1.072       .  S
C372        C373   1.388       .  A
C373       Br379   1.923       .  S
C380        C381   1.412       .  A
C380        C385   1.402       .  A
C381        C382   1.403       .  A
C381       Br397   1.921       .  S
C382        H386   1.083       .  S
C382        C383   1.404       .  A
C383        C387   1.492       .  S
C383        C384   1.414       .  A
C384        C385   1.404       .  A
C384       Br396   1.919       .  S
C385        H388   1.083       .  S
C387        C389   1.402       .  A
C387        C393   1.407       .  A
C389        H394   1.083       .  S
C389        C390   1.405       .  A
C390        C391   1.414       .  A
C390       Br398   1.905       .  S
C391        C392   1.412       .  A
C392        H395   1.079       .  S
C392        C393   1.403       .  A
C393       Br399   1.920       .  S
C400        C401   1.414       .  A
C400        C405   1.407       .  A
C401        C402   1.396       .  A
C401       Br417   1.905       .  S
C402        H406   1.084       .  S
C402        C403   1.399       .  A
C403        C407   1.488       .  S
C403        C404   1.410       .  A
C404        C405   1.404       .  A
C404       Br416   1.918       .  S
C405        H408   1.084       .  S
C407        C409   1.403       .  A
C407        C413   1.414       .  A
C409        H414   1.083       .  S
C409        C410   1.402       .  A
C410        C411   1.411       .  A
C410       Br418   1.920       .  S
C411        C412   1.400       .  A
C412        H415   1.084       .  S
C412        C413   1.400       .  A
C413       Br419   1.918       .  S
C420        C421   1.414       .  A
C420        C425   1.408       .  A
C421        C422   1.411       .  A
C421       Br437   1.917       .  S
C422        H426   1.083       .  S
C422        C423   1.410       .  A
C423        C427   1.497       .  S
C423        C424   1.409       .  A
C424        C425   1.396       .  A
C424       Br436   1.921       .  S
C425        H428   1.080       .  S
C427        C429   1.407       .  A
C427        C433   1.410       .  A
C429        H434   1.084       .  S
C429        C430   1.404       .  A
C430        C431   1.411       .  A
C430       Br438   1.919       .  S
C431        C432   1.409       .  A
C432        H435   1.083       .  S
C432        C433   1.406       .  A
C433       Br439   1.918       .  S
C440        C441   1.418       .  A
C440        C445   1.411       .  A
C441        C442   1.404       .  A
C441       Br457   1.918       .  S
C442        H446   1.084       .  S
C442        C443   1.402       .  A
C443        C447   1.480       .  S
C443        C444   1.403       .  A
C444        C445   1.399       .  A
C444       Br456   1.918       .  S
C445        H448   1.083       .  S
C447        C449   1.391       .  A
C447        C453   1.403       .  A
C449        H454   1.085       .  S
C449        C450   1.395       .  A
C450        C451   1.430       .  A
C450       Br458   1.915       .  S
C451        C452   1.415       .  A
C452        H455   1.082       .  S
C452        C453   1.405       .  A
C453       Br459   1.915       .  S
C460        C461   1.407       .  A
C460        C465   1.403       .  A
C461        C462   1.404       .  A
C461       Br477   1.917       .  S
C462        H466   1.084       .  S
C462        C463   1.406       .  A
C463        C467   1.485       .  S
C463        C464   1.407       .  A
C464        C465   1.401       .  A
C464       Br476   1.917       .  S
C465        H468   1.084       .  S
C467        C469   1.400       .  A
C467        C473   1.407       .  A
C469        H474   1.084       .  S
C469        C470   1.402       .  A
C470        C471   1.418       .  A
C470       Br478   1.913       .  S
C471        C472   1.406       .  A
C472        H475   1.083       .  S
C472        C473   1.404       .  A
C473       Br479   1.917       .  S
C480        C481   1.431       .  A
C480        C485   1.416       .  A
C481        C482   1.396       .  A
C481       Br497   1.912       .  S
C482        H486   1.085       .  S
C482        C483   1.391       .  A
C483        C487   1.483       .  S
C483        C484   1.404       .  A
C484        C485   1.405       .  A
C484       Br496   1.916       .  S
C485        H488   1.081       .  S
C487        C489   1.403       .  A
C487        C493   1.406       .  A
C489        H494   1.084       .  S
C489        C490   1.402       .  A
C490        C491   1.415       .  A
C490       Br498   1.921       .  S
C491        C492   1.407       .  A
C492        H495   1.083       .  S
C492        C493   1.401       .  A
C493       Br499   1.917       .  S
C500        C501   1.406       .  A
C500        C505   1.406       .  A
C501        C502   1.400       .  A
C501       Br517   1.917       .  S
C502        H506   1.083       .  S
C502        C503   1.404       .  A
C503        C507   1.488       .  S
C503        C504   1.411       .  A
C504        C505   1.403       .  A
C504       Br516   1.918       .  S
C505        H508   1.084       .  S
C507        C509   1.402       .  A
C507        C513   1.411       .  A
C509        H514   1.084       .  S
C509        C510   1.403       .  A
C510        C511   1.416       .  A
C510       Br518   1.920       .  S
C511        C512   1.405       .  A
C512        H515   1.083       .  S
C512        C513   1.404       .  A
C513       Br519   1.919       .  S
C520        C521   1.404       .  A
C520        C525   1.399       .  A
C521        C522   1.396       .  A
C521       Br537   1.918       .  S
C522        H526   1.084       .  S
C522        C523   1.401       .  A
C523        C527   1.463       .  S
C523        C524   1.406       .  A
C524        C525   1.392       .  A
C524       Br536   1.918       .  S
C525        H528   1.084       .  S
C527        C529   1.395       .  A
C527        C533   1.402       .  A
C529        H534   1.084       .  S
C529        C530   1.391       .  A
C530        C531   1.412       .  A
C530       Br538   1.903       .  S
C531        C532   1.409       .  A
C532        H535   1.083       .  S
C532        C533   1.396       .  A
C533       Br539   1.917       .  S
C540        C541   1.408       .  A
C540        C545   1.403       .  A
C541        C542   1.396       .  A
C541       Br557   1.919       .  S
C542        H546   1.083       .  S
C542        C543   1.405       .  A
C543        C547   1.477       .  S
C543        C544   1.407       .  A
C544        C545   1.393       .  A
C544       Br556   1.921       .  S
C545        H548   1.076       .  S
C547        C549   1.405       .  A
C547        C553   1.411       .  A
C549        H554   1.083       .  S
C549        C550   1.395       .  A
C550        C551   1.406       .  A
C550       Br558   1.921       .  S
C551        C552   1.398       .  A
C552        H555   1.084       .  S
C552        C553   1.396       .  A
C553       Br559   1.921       .  S
C560        C561   1.406       .  A
C560        C565   1.403       .  A
C561        C562   1.392       .  A
C561       Br577   1.920       .  S
C562        H566   1.084       .  S
C562        C563   1.402       .  A
C563        C567   1.456       .  S
C563        C564   1.402       .  A
C564        C565   1.386       .  A
C564       Br576   1.917       .  S
C565        H568   1.084       .  S
C567        C569   1.395       .  A
C567        C573   1.398       .  A
C569        H574   1.084       .  S
C569        C570   1.388       .  A
C570        C571   1.414       .  A
C570       Br578   1.911       .  S
C571        C572   1.410       .  A
C572        H575   1.076       .  S
C572        C573   1.390       .  A
C573       Br579   1.918       .  S
C580        C581   1.416       .  A
C580        C585   1.407       .  A
C581        C582   1.391       .  A
C581       Br597   1.915       .  S
C582        H586   1.084       .  S
C582        C583   1.396       .  A
C583        C587   1.460       .  S
C583        C584   1.400       .  A
C584        C585   1.392       .  A
C584       Br596   1.917       .  S
C585        H588   1.080       .  S
C587        C589   1.399       .  A
C587        C593   1.405       .  A
C589        H594   1.084       .  S
C589        C590   1.392       .  A
C590        C591   1.407       .  A
C590       Br598   1.920       .  S
C591        C592   1.399       .  A
C592        H595   1.084       .  S
C592        C593   1.394       .  A
C593       Br599   1.917       .  S
C600        C601   1.412       .  A
C600        C605   1.403       .  A
C601        C602   1.397       .  A
C601       Br617   1.906       .  S
C602        H606   1.084       .  S
C602        C603   1.400       .  A
C603        C607   1.476       .  S
C603        C604   1.404       .  A
C604        C605   1.394       .  A
C604       Br616   1.919       .  S
C605        H608   1.079       .  S
C607        C609   1.404       .  A
C607        C613   1.412       .  A
C609        H614   1.084       .  S
C609        C610   1.398       .  A
C610        C611   1.406       .  A
C610       Br618   1.919       .  S
C611        C612   1.399       .  A
C612        H615   1.084       .  S
C612        C613   1.396       .  A
C613       Br619   1.922       .  S
C620        C621   1.402       .  A
C620        C625   1.398       .  A
C621        C622   1.392       .  A
C621       Br637   1.919       .  S
C622        H626   1.084       .  S
C622        C623   1.401       .  A
C623        C627   1.451       .  S
C623        C624   1.403       .  A
C624        C625   1.387       .  A
C624       Br636   1.919       .  S
C625        H628   1.084       .  S
C627        C629   1.392       .  A
C627        C633   1.401       .  A
C629        H634   1.085       .  S
C629        C630   1.386       .  A
C630        C631   1.412       .  A
C630       Br638   1.905       .  S
C631        C632   1.402       .  A
C632        H635   1.078       .  S
C632        C633   1.392       .  A
C633       Br639   1.918       .  S
C640        C641   1.409       .  A
C640        C645   1.402       .  A
C641        C642   1.398       .  A
C641       Br657   1.919       .  S
C642        H646   1.084       .  S
C642        C643   1.401       .  A
C643        C647   1.467       .  S
C643        C644   1.406       .  A
C644        C645   1.392       .  A
C644       Br656   1.920       .  S
C645        H648   1.083       .  S
C647        C649   1.396       .  A
C647        C653   1.402       .  A
C649        H654   1.084       .  S
C649        C650   1.389       .  A
C650        C651   1.413       .  A
C650       Br658   1.908       .  S
C651        C652   1.410       .  A
C652        H655   1.082       .  S
C652        C653   1.398       .  A
C653       Br659   1.917       .  S
C660        C661   1.413       .  A
C660        C665   1.403       .  A
C661        C662   1.397       .  A
C661       Br677   1.916       .  S
C662        H666   1.083       .  S
C662        C663   1.402       .  A
C663        C667   1.481       .  S
C663        C664   1.410       .  A
C664        C665   1.396       .  A
C664       Br676   1.918       .  S
C665        H668   1.084       .  S
C667        C669   1.404       .  A
C667        C673   1.411       .  A
C669        H674   1.084       .  S
C669        C670   1.400       .  A
C670        C671   1.412       .  A
C670       Br678   1.921       .  S
C671        C672   1.401       .  A
C672        H675   1.083       .  S
C672        C673   1.394       .  A
C673       Br679   1.921       .  S
C680        N698   1.353       .  A
C680        C717   1.458       .  S
C680       C1350   1.475       .  S
N681        N698   1.324       .  A
N681        N703   1.318       .  A
N681       Co718   2.087       .  S
C682        N707   1.337       .  A
C682        C720   1.452       .  S
C682        H727   1.082       .  S
H683        C724   1.081       .  S
C684        N708   1.334       .  A
C684        C688   1.451       .  S
C684        H713   1.082       .  S
Co685       N703   2.070       .  S
Co685       N693   2.062       .  S
Co685      Cl729   2.447       .  S
N686        C724   1.336       .  A
N686        N693   1.317       .  A
Co687       N707   2.073       .  S
Co687       N694   2.051       .  S
C688        N726   1.346       .  A
C688       C1270   1.455       .  S
N689        N696   1.319       .  A
N689        N719   1.324       .  A
N690        N708   1.318       .  A
N690        N726   1.323       .  A
N691        C720   1.351       .  A
N691        N701   1.325       .  A
H692        C717   1.081       .  S
N693        N714   1.318       .  A
N694        N712   1.317       .  A
N694        N699   1.316       .  A
C695        N699   1.343       .  A
C695        C723   1.461       .  S
C695       C1239   1.457       .  S
N696        C711   1.335       .  A
N696       Co718   2.074       .  S
C697        N725   1.336       .  A
C697        C700   1.459       .  S
C697        H731   1.082       .  S
C700        N721   1.347       .  A
C700       C1319   1.467       .  S
N701        N707   1.318       .  A
N702        C728   1.341       .  A
N702        N704   1.319       .  A
N703        C717   1.338       .  A
N704        N732   1.319       .  A
N704       Co722   2.054       .  S
H705        C728   1.081       .  S
H706        C723   1.081       .  S
N709        N721   1.323       .  A
N709        N725   1.319       .  A
C710        N714   1.344       .  A
C710        C724   1.452       .  S
C710       C1299   1.445       .  S
C711        C730   1.453       .  S
C711        H715   1.082       .  S
N712        C723   1.338       .  A
N712       Co722   2.074       .  S
C716        N732   1.341       .  A
C716        C728   1.458       .  S
C716       C1199   1.454       .  S
Co718      Cl729   2.434       .  S
N719        C730   1.349       .  A
C720       C1290   1.463       .  S
C730       C1230   1.460       .  S
C733        N751   1.352       .  A
C733        C770   1.470       .  S
C733       C1119   1.494       .  S
N734        N751   1.323       .  A
N734        N756   1.319       .  A
N734       Co771   2.082       .  S
C735        N760   1.341       .  A
C735        C773   1.460       .  S
C735        H780   1.082       .  S
H736        C777   1.082       .  S
C737        N761   1.338       .  A
C737        C741   1.460       .  S
C737        H766   1.081       .  S
Co738       N756   2.091   1_545  S
Co738       N746   2.090   1_545  S
Co738       N778   2.089       .  S
Co738       N754   2.092       .  S
Co738      Cl782   2.458   1_545  S
N739        C777   1.347       .  A
N739        N746   1.323       .  A
N739       Co740   2.106       .  S
Co740       N760   2.086   1_565  S
Co740      Cl782   2.457       .  S
C741        N779   1.356       .  A
C741       C1170   1.488       .  S
N742        N749   1.320       .  A
N742        N772   1.324       .  A
N742       Co775   2.093       .  S
N743        N761   1.320       .  A
N743        N779   1.327       .  A
N744        C773   1.351       .  A
N744        N754   1.326       .  A
H745        C770   1.079       .  S
N746        N767   1.325       .  A
N747        N765   1.322       .  A
N747        N752   1.326       .  A
C748        N752   1.352       .  A
C748        C776   1.470       .  S
C748       C1110   1.493       .  S
N749        C764   1.344       .  A
C750        N778   1.343       .  A
C750        C753   1.462       .  S
C750        H784   1.082       .  S
C753        N774   1.352       .  A
C753       C1059   1.481       .  S
N754        N760   1.321       .  A
N755        C781   1.334       .  A
N755        N757   1.320       .  A
N756        C770   1.343       .  A
N757        N785   1.329       .  A
N757       Co775   2.098   1_545  S
H758        C781   1.080       .  S
H759        C776   1.081       .  S
N761       Co775   2.080       .  S
N762        N774   1.326       .  A
N762        N778   1.321       .  A
N762       Co771   2.097   1_545  S
C763        N767   1.349       .  A
C763        C777   1.467       .  S
C763       C1190   1.489       .  S
C764        C783   1.465       .  S
C764        H768   1.082       .  S
N765        C776   1.346       .  A
N765       Co775   2.103   1_545  S
C769        N785   1.357       .  A
C769        C781   1.458       .  S
C769       C1039   1.487       .  S
Co771      Cl782   2.449       .  S
N772        C783   1.351       .  A
C773       C1090   1.476       .  S
C783       C1139   1.477       .  S
C786        N804   1.353       .  A
C786        C823   1.468       .  S
C786        C959   1.494       .  S
N787        N804   1.327       .  A
N787        N809   1.323       .  A
N787       Co824   2.102       .  S
C788        N813   1.339       .  A
C788        C826   1.460       .  S
C788        H833   1.081       .  S
H789        C830   1.081       .  S
C790        N814   1.342       .  A
C790        C794   1.467       .  S
C790        H819   1.081       .  S
Co791       N809   2.103       .  S
Co791       N799   2.104       .  S
Co791       N831   2.091   1_655  S
Co791       N807   2.100   1_655  S
Co791      Cl835   2.470       .  S
N792        C830   1.345       .  A
N792        N799   1.322       .  A
N792       Co793   2.100       .  S
Co793       N813   2.081   1_655  S
Co793      Cl835   2.451       .  S
C794        N832   1.348       .  A
C794       C1010   1.485       .  S
N795        N802   1.320       .  A
N795        N825   1.327       .  A
N795       Co828   2.096       .  S
N796        N814   1.320       .  A
N796        N832   1.321       .  A
N797        C826   1.355       .  A
N797        N807   1.327       .  A
H798        C823   1.082       .  S
N799        N820   1.329       .  A
N800        N818   1.321       .  A
N800        N805   1.329       .  A
C801        N805   1.354       .  A
C801        C829   1.465       .  S
C801        C899   1.493       .  S
N802        C817   1.341       .  A
C803        N831   1.343       .  A
C803        C806   1.467       .  S
C803        H837   1.081       .  S
C806        N827   1.348       .  A
C806        C939   1.489       .  S
N807        N813   1.321       .  A
N808        C834   1.346       .  A
N808        N810   1.321       .  A
N809        C823   1.346       .  A
N810        N838   1.327       .  A
N810       Co828   2.092   1_455  S
H811        C834   1.082       .  S
H812        C829   1.081       .  S
N814       Co828   2.090       .  S
N815        N827   1.322       .  A
N815        N831   1.321       .  A
N815       Co824   2.082   1_455  S
C816        N820   1.355       .  A
C816        C830   1.462       .  S
C816       C1019   1.489       .  S
C817        C836   1.466       .  S
C817        H821   1.081       .  S
N818        C829   1.342       .  A
N818       Co828   2.094   1_455  S
C822        N838   1.352       .  A
C822        C834   1.468       .  S
C822        C919   1.490       .  S
Co824      Cl835   2.449       .  S
N825        C836   1.354       .  A
C826        C890   1.484       .  S
C836        C979   1.494       .  S
C839        H840   1.102       .  S
C839        C845   1.539       .  S
C839        C844   1.544       .  S
C839        C843   1.545       .  S
C841        H842   1.111       .  S
C841        C847   1.544       .  S
C841        C846   1.534       .  S
C841        C848   1.545       .  S
C843        C846   1.376       .  D
C843       C1339   1.483       .  S
C844        C847   1.388       .  D
C844        C950   1.519       .  S
C845        C848   1.380       .  D
C845       C1079   1.496       .  S
C846       C1330   1.488       .  S
C847        C930   1.499       .  S
C848       C1099   1.505       .  S
C849        H850   1.110       .  S
C849        C855   1.560       .  S
C849        C854   1.558       .  S
C849        C853   1.535       .  S
C851        H852   1.108       .  S
C851        C857   1.544       .  S
C851        C856   1.546       .  S
C851        C858   1.536       .  S
C853        C856   1.369       .  D
C853       C1310   1.474       .  S
C854        C857   1.389       .  D
C854       C1070   1.517       .  S
C855        C858   1.381       .  D
C855        C970   1.509       .  S
C856       C1279   1.490       .  S
C857       C1050   1.510       .  S
C858        C990   1.505       .  S
C859        H860   1.112       .  S
C859        C865   1.532       .  S
C859        C864   1.539       .  S
C859        C863   1.528       .  S
C861        H862   1.100       .  S
C861        C867   1.551       .  S
C861        C866   1.548       .  S
C861        C868   1.551       .  S
C863        C866   1.374       .  D
C863       C1219   1.483       .  S
C864        C867   1.388       .  D
C864       C1179   1.490       .  S
C865        C868   1.375       .  D
C865        C879   1.495       .  S
C866       C1210   1.487       .  S
C867       C1159   1.525       .  S
C868        C910   1.497       .  S
C869        H870   1.104       .  S
C869        C875   1.547       .  S
C869        C874   1.543       .  S
C869        C873   1.540       .  S
C871        H872   1.108       .  S
C871        C877   1.544       .  S
C871        C876   1.538       .  S
C871        C878   1.541       .  S
C873        C876   1.379       .  D
C873       C1259   1.485       .  S
C874        C877   1.382       .  D
C874       C1030   1.510       .  S
C875        C878   1.384       .  D
C875       C1130   1.517       .  S
C876       C1250   1.488       .  S
C877        C999   1.499       .  S
C878       C1150   1.501       .  S
C879        C880   1.408       .  A
C879        C884   1.406       .  A
C880        C881   1.405       .  A
C880       Br896   1.915       .  S
C881        H885   1.083       .  S
C881        C882   1.407       .  A
C882        C886   1.487       .  S
C882        C883   1.408       .  A
C883        C884   1.396       .  A
C883       Br895   1.921       .  S
C884        H887   1.079       .  S
C886        C888   1.404       .  A
C886        C892   1.410       .  A
C888        H893   1.083       .  S
C888        C889   1.402       .  A
C889        C890   1.413       .  A
C889       Br897   1.920       .  S
C890        C891   1.405       .  A
C891        H894   1.083       .  S
C891        C892   1.401       .  A
C892       Br898   1.920       .  S
C899        C900   1.417       .  A
C899        C904   1.406       .  A
C900        C901   1.404       .  A
C900       Br916   1.920       .  S
C901        H905   1.084       .  S
C901        C902   1.403       .  A
C902        C906   1.495       .  S
C902        C903   1.413       .  A
C903        C904   1.407       .  A
C903       Br915   1.919       .  S
C904        H907   1.084       .  S
C906        C908   1.407       .  A
C906        C912   1.412       .  A
C908        H913   1.083       .  S
C908        C909   1.406       .  A
C909        C910   1.409       .  A
C909       Br917   1.917       .  S
C910        C911   1.405       .  A
C911        H914   1.083       .  S
C911        C912   1.403       .  A
C912       Br918   1.919       .  S
C919        C920   1.411       .  A
C919        C924   1.408       .  A
C920        C921   1.405       .  A
C920       Br936   1.918       .  S
C921        H925   1.083       .  S
C921        C922   1.405       .  A
C922        C926   1.491       .  S
C922        C923   1.409       .  A
C923        C924   1.405       .  A
C923       Br935   1.919       .  S
C924        H927   1.083       .  S
C926        C928   1.405       .  A
C926        C932   1.411       .  A
C928        H933   1.083       .  S
C928        C929   1.405       .  A
C929        C930   1.409       .  A
C929       Br937   1.918       .  S
C930        C931   1.407       .  A
C931        H934   1.081       .  S
C931        C932   1.402       .  A
C932       Br938   1.918       .  S
C939        C940   1.421       .  A
C939        C944   1.406       .  A
C940        C941   1.401       .  A
C940       Br956   1.922       .  S
C941        H945   1.084       .  S
C941        C942   1.399       .  A
C942        C946   1.480       .  S
C942        C943   1.407       .  A
C943        C944   1.399       .  A
C943       Br955   1.919       .  S
C944        H947   1.083       .  S
C946        C948   1.392       .  A
C946        C952   1.403       .  A
C948        H953   1.085       .  S
C948        C949   1.397       .  A
C949        C950   1.431       .  A
C949       Br957   1.915       .  S
C950        C951   1.414       .  A
C951        H954   1.082       .  S
C951        C952   1.403       .  A
C952       Br958   1.916       .  S
C959        C960   1.414       .  A
C959        C964   1.408       .  A
C960        C961   1.406       .  A
C960       Br976   1.919       .  S
C961        H965   1.083       .  S
C961        C962   1.404       .  A
C962        C966   1.494       .  S
C962        C963   1.412       .  A
C963        C964   1.405       .  A
C963       Br975   1.921       .  S
C964        H967   1.083       .  S
C966        C968   1.406       .  A
C966        C972   1.408       .  A
C968        H973   1.085       .  S
C968        C969   1.409       .  A
C969        C970   1.413       .  A
C969       Br977   1.908       .  S
C970        C971   1.402       .  A
C971        H974   1.088       .  S
C971        C972   1.397       .  A
C972       Br978   1.919       .  S
C979        C980   1.415       .  A
C979        C984   1.409       .  A
C980        C981   1.404       .  A
C980       Br996   1.920       .  S
C981        H985   1.084       .  S
C981        C982   1.405       .  A
C982        C986   1.492       .  S
C982        C983   1.409       .  A
C983        C984   1.402       .  A
C983       Br995   1.919       .  S
C984        H987   1.082       .  S
C986        C988   1.407       .  A
C986        C992   1.407       .  A
C988        H993   1.083       .  S
C988        C989   1.408       .  A
C989        C990   1.413       .  A
C989       Br997   1.914       .  S
C990        C991   1.407       .  A
C991        H994   1.080       .  S
C991        C992   1.396       .  A
C992       Br998   1.920       .  S
C999       C1000   1.412       .  A
C999       C1004   1.411       .  A
C1000      C1001   1.404       .  A
C1000     Br1016   1.916       .  S
C1001      H1005   1.083       .  S
C1001      C1002   1.403       .  A
C1002      C1006   1.477       .  S
C1002      C1003   1.402       .  A
C1003      C1004   1.394       .  A
C1003     Br1015   1.918       .  S
C1004      H1007   1.080       .  S
C1006      C1008   1.399       .  A
C1006      C1012   1.406       .  A
C1008      H1013   1.084       .  S
C1008      C1009   1.398       .  A
C1009      C1010   1.416       .  A
C1009     Br1017   1.921       .  S
C1010      C1011   1.408       .  A
C1011      H1014   1.082       .  S
C1011      C1012   1.400       .  A
C1012     Br1018   1.919       .  S
C1019      C1020   1.411       .  A
C1019      C1024   1.407       .  A
C1020      C1021   1.405       .  A
C1020     Br1036   1.917       .  S
C1021      H1025   1.083       .  S
C1021      C1022   1.405       .  A
C1022      C1026   1.491       .  S
C1022      C1023   1.409       .  A
C1023      C1024   1.406       .  A
C1023     Br1035   1.917       .  S
C1024      H1027   1.083       .  S
C1026      C1028   1.397       .  A
C1026      C1032   1.408       .  A
C1028      H1033   1.084       .  S
C1028      C1029   1.400       .  A
C1029      C1030   1.422       .  A
C1029     Br1037   1.908       .  S
C1030      C1031   1.409       .  A
C1031      H1034   1.083       .  S
C1031      C1032   1.408       .  A
C1032     Br1038   1.915       .  S
C1039      C1040   1.414       .  A
C1039      C1044   1.408       .  A
C1040      C1041   1.395       .  A
C1040     Br1056   1.921       .  S
C1041      H1045   1.084       .  S
C1041      C1042   1.401       .  A
C1042      C1046   1.487       .  S
C1042      C1043   1.410       .  A
C1043      C1044   1.406       .  A
C1043     Br1055   1.917       .  S
C1044      H1047   1.083       .  S
C1046      C1048   1.408       .  A
C1046      C1052   1.405       .  A
C1048      H1053   1.083       .  S
C1048      C1049   1.411       .  A
C1049      C1050   1.416       .  A
C1049     Br1057   1.918       .  S
C1050      C1051   1.406       .  A
C1051      H1054   1.072       .  S
C1051      C1052   1.388       .  A
C1052     Br1058   1.923       .  S
C1059      C1060   1.412       .  A
C1059      C1064   1.402       .  A
C1060      C1061   1.403       .  A
C1060     Br1076   1.921       .  S
C1061      H1065   1.083       .  S
C1061      C1062   1.404       .  A
C1062      C1066   1.492       .  S
C1062      C1063   1.414       .  A
C1063      C1064   1.404       .  A
C1063     Br1075   1.919       .  S
C1064      H1067   1.083       .  S
C1066      C1068   1.402       .  A
C1066      C1072   1.407       .  A
C1068      H1073   1.083       .  S
C1068      C1069   1.405       .  A
C1069      C1070   1.414       .  A
C1069     Br1077   1.905       .  S
C1070      C1071   1.412       .  A
C1071      H1074   1.079       .  S
C1071      C1072   1.403       .  A
C1072     Br1078   1.920       .  S
C1079      C1080   1.414       .  A
C1079      C1084   1.407       .  A
C1080      C1081   1.396       .  A
C1080     Br1096   1.905       .  S
C1081      H1085   1.084       .  S
C1081      C1082   1.399       .  A
C1082      C1086   1.488       .  S
C1082      C1083   1.410       .  A
C1083      C1084   1.404       .  A
C1083     Br1095   1.918       .  S
C1084      H1087   1.084       .  S
C1086      C1088   1.403       .  A
C1086      C1092   1.414       .  A
C1088      H1093   1.083       .  S
C1088      C1089   1.402       .  A
C1089      C1090   1.411       .  A
C1089     Br1097   1.920       .  S
C1090      C1091   1.400       .  A
C1091      H1094   1.084       .  S
C1091      C1092   1.400       .  A
C1092     Br1098   1.918       .  S
C1099      C1100   1.414       .  A
C1099      C1104   1.408       .  A
C1100      C1101   1.411       .  A
C1100     Br1116   1.917       .  S
C1101      H1105   1.083       .  S
C1101      C1102   1.410       .  A
C1102      C1106   1.497       .  S
C1102      C1103   1.409       .  A
C1103      C1104   1.396       .  A
C1103     Br1115   1.921       .  S
C1104      H1107   1.080       .  S
C1106      C1108   1.407       .  A
C1106      C1112   1.410       .  A
C1108      H1113   1.084       .  S
C1108      C1109   1.404       .  A
C1109      C1110   1.411       .  A
C1109     Br1117   1.919       .  S
C1110      C1111   1.409       .  A
C1111      H1114   1.083       .  S
C1111      C1112   1.406       .  A
C1112     Br1118   1.918       .  S
C1119      C1120   1.418       .  A
C1119      C1124   1.411       .  A
C1120      C1121   1.404       .  A
C1120     Br1136   1.918       .  S
C1121      H1125   1.084       .  S
C1121      C1122   1.402       .  A
C1122      C1126   1.480       .  S
C1122      C1123   1.403       .  A
C1123      C1124   1.399       .  A
C1123     Br1135   1.918       .  S
C1124      H1127   1.083       .  S
C1126      C1128   1.391       .  A
C1126      C1132   1.403       .  A
C1128      H1133   1.085       .  S
C1128      C1129   1.395       .  A
C1129      C1130   1.430       .  A
C1129     Br1137   1.915       .  S
C1130      C1131   1.415       .  A
C1131      H1134   1.082       .  S
C1131      C1132   1.405       .  A
C1132     Br1138   1.915       .  S
C1139      C1140   1.407       .  A
C1139      C1144   1.403       .  A
C1140      C1141   1.404       .  A
C1140     Br1156   1.917       .  S
C1141      H1145   1.084       .  S
C1141      C1142   1.406       .  A
C1142      C1146   1.485       .  S
C1142      C1143   1.407       .  A
C1143      C1144   1.401       .  A
C1143     Br1155   1.917       .  S
C1144      H1147   1.084       .  S
C1146      C1148   1.400       .  A
C1146      C1152   1.407       .  A
C1148      H1153   1.084       .  S
C1148      C1149   1.402       .  A
C1149      C1150   1.418       .  A
C1149     Br1157   1.913       .  S
C1150      C1151   1.406       .  A
C1151      H1154   1.083       .  S
C1151      C1152   1.404       .  A
C1152     Br1158   1.916       .  S
C1159      C1160   1.431       .  A
C1159      C1164   1.416       .  A
C1160      C1161   1.396       .  A
C1160     Br1176   1.912       .  S
C1161      H1165   1.085       .  S
C1161      C1162   1.391       .  A
C1162      C1166   1.483       .  S
C1162      C1163   1.404       .  A
C1163      C1164   1.405       .  A
C1163     Br1175   1.916       .  S
C1164      H1167   1.081       .  S
C1166      C1168   1.403       .  A
C1166      C1172   1.406       .  A
C1168      H1173   1.084       .  S
C1168      C1169   1.402       .  A
C1169      C1170   1.415       .  A
C1169     Br1177   1.921       .  S
C1170      C1171   1.407       .  A
C1171      H1174   1.083       .  S
C1171      C1172   1.401       .  A
C1172     Br1178   1.917       .  S
C1179      C1180   1.406       .  A
C1179      C1184   1.406       .  A
C1180      C1181   1.400       .  A
C1180     Br1196   1.917       .  S
C1181      H1185   1.083       .  S
C1181      C1182   1.404       .  A
C1182      C1186   1.489       .  S
C1182      C1183   1.411       .  A
C1183      C1184   1.403       .  A
C1183     Br1195   1.918       .  S
C1184      H1187   1.084       .  S
C1186      C1188   1.402       .  A
C1186      C1192   1.411       .  A
C1188      H1193   1.084       .  S
C1188      C1189   1.403       .  A
C1189      C1190   1.416       .  A
C1189     Br1197   1.920       .  S
C1190      C1191   1.405       .  A
C1191      H1194   1.083       .  S
C1191      C1192   1.404       .  A
C1192     Br1198   1.919       .  S
C1199      C1200   1.404       .  A
C1199      C1204   1.399       .  A
C1200      C1201   1.396       .  A
C1200     Br1216   1.918       .  S
C1201      H1205   1.084       .  S
C1201      C1202   1.401       .  A
C1202      C1206   1.463       .  S
C1202      C1203   1.406       .  A
C1203      C1204   1.392       .  A
C1203     Br1215   1.918       .  S
C1204      H1207   1.084       .  S
C1206      C1208   1.395       .  A
C1206      C1212   1.402       .  A
C1208      H1213   1.084       .  S
C1208      C1209   1.391       .  A
C1209      C1210   1.412       .  A
C1209     Br1217   1.903       .  S
C1210      C1211   1.409       .  A
C1211      H1214   1.083       .  S
C1211      C1212   1.396       .  A
C1212     Br1218   1.917       .  S
C1219      C1220   1.408       .  A
C1219      C1224   1.403       .  A
C1220      C1221   1.396       .  A
C1220     Br1236   1.919       .  S
C1221      H1225   1.083       .  S
C1221      C1222   1.405       .  A
C1222      C1226   1.477       .  S
C1222      C1223   1.407       .  A
C1223      C1224   1.393       .  A
C1223     Br1235   1.921       .  S
C1224      H1227   1.076       .  S
C1226      C1228   1.405       .  A
C1226      C1232   1.411       .  A
C1228      H1233   1.083       .  S
C1228      C1229   1.395       .  A
C1229      C1230   1.406       .  A
C1229     Br1237   1.921       .  S
C1230      C1231   1.398       .  A
C1231      H1234   1.084       .  S
C1231      C1232   1.396       .  A
C1232     Br1238   1.921       .  S
C1239      C1240   1.406       .  A
C1239      C1244   1.403       .  A
C1240      C1241   1.392       .  A
C1240     Br1256   1.920       .  S
C1241      H1245   1.084       .  S
C1241      C1242   1.402       .  A
C1242      C1246   1.456       .  S
C1242      C1243   1.402       .  A
C1243      C1244   1.386       .  A
C1243     Br1255   1.918       .  S
C1244      H1247   1.084       .  S
C1246      C1248   1.395       .  A
C1246      C1252   1.398       .  A
C1248      H1253   1.084       .  S
C1248      C1249   1.388       .  A
C1249      C1250   1.414       .  A
C1249     Br1257   1.911       .  S
C1250      C1251   1.410       .  A
C1251      H1254   1.076       .  S
C1251      C1252   1.390       .  A
C1252     Br1258   1.918       .  S
C1259      C1260   1.416       .  A
C1259      C1264   1.407       .  A
C1260      C1261   1.391       .  A
C1260     Br1276   1.915       .  S
C1261      H1265   1.084       .  S
C1261      C1262   1.396       .  A
C1262      C1266   1.460       .  S
C1262      C1263   1.400       .  A
C1263      C1264   1.392       .  A
C1263     Br1275   1.917       .  S
C1264      H1267   1.080       .  S
C1266      C1268   1.399       .  A
C1266      C1272   1.405       .  A
C1268      H1273   1.084       .  S
C1268      C1269   1.392       .  A
C1269      C1270   1.407       .  A
C1269     Br1277   1.920       .  S
C1270      C1271   1.399       .  A
C1271      H1274   1.084       .  S
C1271      C1272   1.394       .  A
C1272     Br1278   1.917       .  S
C1279      C1280   1.412       .  A
C1279      C1284   1.403       .  A
C1280      C1281   1.397       .  A
C1280     Br1296   1.906       .  S
C1281      H1285   1.084       .  S
C1281      C1282   1.400       .  A
C1282      C1286   1.476       .  S
C1282      C1283   1.404       .  A
C1283      C1284   1.394       .  A
C1283     Br1295   1.919       .  S
C1284      H1287   1.080       .  S
C1286      C1288   1.404       .  A
C1286      C1292   1.412       .  A
C1288      H1293   1.084       .  S
C1288      C1289   1.398       .  A
C1289      C1290   1.406       .  A
C1289     Br1297   1.919       .  S
C1290      C1291   1.399       .  A
C1291      H1294   1.084       .  S
C1291      C1292   1.396       .  A
C1292     Br1298   1.922       .  S
C1299      C1300   1.402       .  A
C1299      C1304   1.399       .  A
C1300      C1301   1.392       .  A
C1300     Br1316   1.919       .  S
C1301      H1305   1.084       .  S
C1301      C1302   1.401       .  A
C1302      C1306   1.451       .  S
C1302      C1303   1.403       .  A
C1303      C1304   1.387       .  A
C1303     Br1315   1.919       .  S
C1304      H1307   1.084       .  S
C1306      C1308   1.392       .  A
C1306      C1312   1.400       .  A
C1308      H1313   1.085       .  S
C1308      C1309   1.386       .  A
C1309      C1310   1.412       .  A
C1309     Br1317   1.905       .  S
C1310      C1311   1.403       .  A
C1311      H1314   1.078       .  S
C1311      C1312   1.392       .  A
C1312     Br1318   1.918       .  S
C1319      C1320   1.409       .  A
C1319      C1324   1.402       .  A
C1320      C1321   1.398       .  A
C1320     Br1336   1.919       .  S
C1321      H1325   1.084       .  S
C1321      C1322   1.401       .  A
C1322      C1326   1.467       .  S
C1322      C1323   1.406       .  A
C1323      C1324   1.392       .  A
C1323     Br1335   1.920       .  S
C1324      H1327   1.083       .  S
C1326      C1328   1.396       .  A
C1326      C1332   1.402       .  A
C1328      H1333   1.084       .  S
C1328      C1329   1.389       .  A
C1329      C1330   1.413       .  A
C1329     Br1337   1.908       .  S
C1330      C1331   1.410       .  A
C1331      H1334   1.082       .  S
C1331      C1332   1.398       .  A
C1332     Br1338   1.917       .  S
C1339      C1340   1.413       .  A
C1339      C1344   1.403       .  A
C1340      C1341   1.397       .  A
C1340     Br1356   1.916       .  S
C1341      H1345   1.083       .  S
C1341      C1342   1.402       .  A
C1342      C1346   1.481       .  S
C1342      C1343   1.410       .  A
C1343      C1344   1.396       .  A
C1343     Br1355   1.918       .  S
C1344      H1347   1.084       .  S
C1346      C1348   1.404       .  A
C1346      C1352   1.411       .  A
C1348      H1353   1.084       .  S
C1348      C1349   1.400       .  A
C1349      C1350   1.412       .  A
C1349     Br1357   1.921       .  S
C1350      C1351   1.401       .  A
C1351      H1354   1.083       .  S
C1351      C1352   1.394       .  A
C1352     Br1358   1.921       .  S
