geometry optimzed in LAMMPS
_audit_creation_date              2020-11-30 
_audit_creation_method            'lammps2cif' 
_symmetry_space_group_name_H-M    'P1' 
_symmetry_Int_Tables_number       1 
_symmetry_cell_setting            triclinic 
loop_ 
_symmetry_equiv_pos_as_xyz 
  x,y,z 
_cell_length_a                    64.83747971 
_cell_length_b                    64.85049801755196 
_cell_length_c                    64.88683491668077 
_cell_angle_alpha                 89.89746805881148 
_cell_angle_beta                  90.01195233787523 
_cell_angle_gamma                 89.88590134935943 
loop_ 
_atom_site_label 
_atom_site_type_symbol 
_atom_site_fract_x 
_atom_site_fract_y 
_atom_site_fract_z 
_atom_site_charge 
C1          C  0.66207809  0.13295266  0.86816203     0.03600
C2          C  0.65761609  0.12734625  0.84781159    -0.12600
C3          C  0.65652666  0.14238178  0.83232812     0.01100
C4          C  0.65864334  0.16321735  0.83762023    -0.11100
C5          C  0.66477924  0.16910151  0.85756443     0.03600
C6          C  0.66637154  0.15364476  0.87282039    -0.10500
H7          H  0.65523735  0.11128616  0.84396474     0.09200
H8          H  0.65618635  0.17483807  0.82579246     0.06700
H9          H  0.67112182  0.15754586  0.88834335     0.06600
C10         C  0.89038705  0.13684688  0.61956191     0.03600
C11         C  0.89542887  0.15789980  0.62009388    -0.12600
C12         C  0.88136927  0.17245459  0.62803011     0.01100
C13         C  0.86161625  0.16560248  0.63390789    -0.11100
C14         C  0.85598681  0.14483720  0.63205498     0.03600
C15         C  0.87052874  0.13046287  0.62517643    -0.10500
H16         H  0.91045202  0.16272539  0.61472096     0.09200
H17         H  0.85038817  0.17642351  0.63989723     0.06700
H18         H  0.86648381  0.11426609  0.62443261     0.06600
C19         C  0.89759072  0.37887028  0.86924108     0.03600
C20         C  0.87677809  0.37799714  0.87518671    -0.12600
C21         C  0.86121387  0.37633952  0.86030565     0.01100
C22         C  0.86643849  0.37609342  0.83936060    -0.11100
C23         C  0.88713762  0.37696398  0.83321365     0.03600
C24         C  0.90272559  0.37803263  0.84820466    -0.10500
H25         H  0.87274260  0.37803672  0.89139689     0.09200
H26         H  0.85440051  0.37472192  0.82784023     0.06700
H27         H  0.91877084  0.37833534  0.84351544     0.06600
C28         C  0.67492211  0.35740299  0.87944386     0.03600
C29         C  0.67147760  0.33595711  0.87939930    -0.12600
C30         C  0.68770027  0.32194590  0.88345089     0.01100
C31         C  0.70755932  0.32995036  0.88705472    -0.11100
C32         C  0.71144061  0.35116090  0.88585969     0.03600
C33         C  0.69504546  0.36479193  0.88234415    -0.10500
H34         H  0.65619830  0.33031013  0.87597878     0.09200
H35         H  0.72038403  0.31963383  0.88996013     0.06700
H36         H  0.69802791  0.38121796  0.88153557     0.06600
C37         C  0.91783153  0.35924516  0.64698317     0.03600
C38         C  0.91568311  0.33838480  0.64174300    -0.12600
C39         C  0.90786249  0.32409690  0.65609681     0.01100
C40         C  0.90386379  0.33091813  0.67634552    -0.11100
C41         C  0.90782551  0.35135133  0.68213263     0.03600
C42         C  0.91437311  0.36557457  0.66731346    -0.10500
H43         H  0.91981791  0.33348925  0.62634934     0.09200
H44         H  0.89794372  0.32031491  0.68781637     0.06700
H45         H  0.91665910  0.38156802  0.67155793     0.06600
C46         C  0.66893670  0.12488758  0.64435304     0.03600
C47         C  0.69020860  0.12559986  0.64025166    -0.12600
C48         C  0.70453323  0.12655118  0.65642674     0.01100
C49         C  0.69752189  0.12667816  0.67685235    -0.11100
C50         C  0.67636028  0.12575392  0.68120893     0.03600
C51         C  0.66214517  0.12459406  0.66494355    -0.10500
H52         H  0.69564317  0.12565110  0.62445595     0.09200
H53         H  0.70854305  0.12767663  0.68938221     0.06700
H54         H  0.64580443  0.12374664  0.66833356     0.06600
C55         C  0.17023364  0.36919264  0.87315969     0.03600
C56         C  0.16413819  0.36790400  0.85238131    -0.12600
C57         C  0.17897910  0.36638008  0.83669817     0.01100
C58         C  0.19993854  0.36550830  0.84194527    -0.11100
C59         C  0.20612144  0.36622104  0.86259405     0.03600
C60         C  0.19128178  0.36809693  0.87816049    -0.10500
H61         H  0.14790176  0.36820621  0.84841500     0.09200
H62         H  0.21146381  0.36387847  0.82994074     0.06700
H63         H  0.19613522  0.36883325  0.89412837     0.06600
C64         C  0.16622536  0.13028438  0.61825024     0.03600
C65         C  0.16263024  0.15133781  0.62188157    -0.12600
C66         C  0.17906712  0.16471533  0.62622423     0.01100
C67         C  0.19913787  0.15672474  0.62759216    -0.11100
C68         C  0.20294298  0.13567841  0.62432926     0.03600
C69         C  0.18647374  0.12254307  0.61946250    -0.10500
H70         H  0.14700862  0.15730654  0.62135992     0.09200
H71         H  0.21189491  0.16696064  0.63097122     0.06700
H72         H  0.18935711  0.10625581  0.61707271     0.06600
C73         C  0.40123057  0.13443828  0.85415525     0.03600
C74         C  0.39907767  0.12909173  0.83323837    -0.12600
C75         C  0.40025872  0.14431993  0.81769553     0.01100
C76         C  0.40421803  0.16481213  0.82355423    -0.11100
C77         C  0.40421494  0.17050220  0.84433258     0.03600
C78         C  0.40294595  0.15527909  0.85955368    -0.10500
H79         H  0.39648616  0.11311850  0.82917112     0.09200
H80         H  0.40638571  0.17662972  0.81195866     0.06700
H81         H  0.40315354  0.15969899  0.87565438     0.06600
C82         C  0.39400616  0.35655435  0.87994798     0.03600
C83         C  0.37288173  0.36130266  0.88064055    -0.12600
C84         C  0.35817785  0.34567022  0.87844064     0.01100
C85         C  0.36462781  0.32520006  0.87604086    -0.11100
C86         C  0.38565891  0.32026212  0.87570764     0.03600
C87         C  0.40035368  0.33595115  0.87781279    -0.10500
H88         H  0.36792210  0.37721512  0.88203527     0.09200
H89         H  0.35325330  0.31314356  0.87395541     0.06700
H90         H  0.41663852  0.33225681  0.87686773     0.06600
C91         C  0.38997465  0.12114463  0.62907844     0.03600
C92         C  0.39413676  0.12254603  0.65028406    -0.12600
C93         C  0.37906101  0.11722114  0.66499512     0.01100
C94         C  0.35926480  0.11181489  0.65781812    -0.11100
C95         C  0.35434363  0.11231810  0.63677839     0.03600
C96         C  0.36993943  0.11645817  0.62240519    -0.10500
H97         H  0.40915501  0.12786111  0.65510223     0.09200
H98         H  0.34718000  0.10795298  0.66862716     0.06700
H99         H  0.36644102  0.11630133  0.60606959     0.06600
C100        C  0.15079588  0.35108226  0.65000969     0.03600
C101        C  0.15149311  0.33018039  0.64430043    -0.12600
C102        C  0.15476269  0.31472417  0.65915504     0.01100
C103        C  0.15733873  0.32038148  0.67985889    -0.11100
C104        C  0.15611553  0.34110169  0.68585340     0.03600
C105        C  0.15262696  0.35638416  0.67092762    -0.10500
H106        H  0.14960172  0.32595019  0.62826275     0.09200
H107        H  0.16051830  0.30866180  0.69135752     0.06700
H108        H  0.15199232  0.37243933  0.67552026     0.06600
C109        C  0.39523585  0.85882338  0.86022192     0.03600
C110        C  0.39496039  0.83770867  0.86527249    -0.12600
C111        C  0.39314418  0.82266786  0.84980030     0.01100
C112        C  0.39140996  0.82894650  0.82913953    -0.11100
C113        C  0.39116855  0.84995602  0.82390261     0.03600
C114        C  0.39328662  0.86477542  0.83946707    -0.10500
H115        H  0.39614948  0.83296458  0.88123917     0.09200
H116        H  0.39012340  0.81745275  0.81709631     0.06700
H117        H  0.39335048  0.88100052  0.83539857     0.06600
C118        C  0.16411008  0.85766401  0.61618189     0.03600
C119        C  0.15934585  0.83661030  0.61810638    -0.12600
C120        C  0.17512734  0.82186390  0.61986440     0.01100
C121        C  0.19574609  0.82830935  0.61991435    -0.11100
C122        C  0.20079659  0.84926425  0.61811397     0.03600
C123        C  0.18487438  0.86394666  0.61653926    -0.10500
H124        H  0.14337485  0.83171925  0.61826523     0.09200
H125        H  0.20792205  0.81698685  0.62188115     0.06700
H126        H  0.18863266  0.88018322  0.61533624     0.06600
C127        C  0.16825727  0.61878763  0.87039987     0.03600
C128        C  0.16156183  0.62041096  0.84989576    -0.12600
C129        C  0.17587238  0.62273091  0.83394073     0.01100
C130        C  0.19701693  0.62285257  0.83840660    -0.11100
C131        C  0.20402809  0.62092790  0.85882152     0.03600
C132        C  0.18948224  0.61905317  0.87479095    -0.10500
H133        H  0.14521217  0.62026399  0.84639352     0.09200
H134        H  0.20801330  0.62473374  0.82595734     0.06700
H135        H  0.19460966  0.61833732  0.89067056     0.06600
C136        C  0.39352089  0.63372415  0.87625683     0.03600
C137        C  0.37286691  0.62726707  0.87789373    -0.12600
C138        C  0.35663029  0.64155868  0.87617456     0.01100
C139        C  0.36125535  0.66249984  0.87343353    -0.11100
C140        C  0.38169457  0.66922543  0.87121901     0.03600
C141        C  0.39781657  0.65472689  0.87273777    -0.10500
H142        H  0.36944299  0.61108383  0.88022440     0.09200
H143        H  0.34878275  0.67362641  0.87257698     0.06700
H144        H  0.41366336  0.65974491  0.87110000     0.06600
C145        C  0.14544309  0.63622874  0.64899305     0.03600
C146        C  0.14610882  0.63255195  0.67031232    -0.12600
C147        C  0.14998533  0.64871713  0.68405135     0.01100
C148        C  0.15285607  0.66875077  0.67645500    -0.11100
C149        C  0.15196753  0.67272798  0.65519576     0.03600
C150        C  0.14793629  0.65644550  0.64151640    -0.10500
H151        H  0.14419915  0.61700085  0.67616675     0.09200
H152        H  0.15598269  0.68123225  0.68709899     0.06700
H153        H  0.14751591  0.65936288  0.62506947     0.06600
C154        C  0.38801182  0.87915650  0.63694341     0.03600
C155        C  0.36747777  0.87627557  0.63048658    -0.12600
C156        C  0.35139678  0.87485300  0.64496525     0.01100
C157        C  0.35615132  0.87581876  0.66604867    -0.11100
C158        C  0.37652439  0.87849564  0.67271227     0.03600
C159        C  0.39234302  0.88045004  0.65813294    -0.10500
H160        H  0.36408597  0.87479024  0.61420679     0.09200
H161        H  0.34396992  0.87420907  0.67738069     0.06700
H162        H  0.40803016  0.88290148  0.66333177     0.06600
C163        C  0.89114395  0.85380578  0.61871160     0.03600
C164        C  0.87001492  0.85837862  0.62047813    -0.12600
C165        C  0.85604106  0.84359193  0.62805964     0.01100
C166        C  0.86350834  0.82364791  0.63249545    -0.11100
C167        C  0.88432608  0.81851471  0.62965185     0.03600
C168        C  0.89813109  0.83375125  0.62302810    -0.10500
H169        H  0.86463813  0.87358337  0.61619474     0.09200
H170        H  0.85310279  0.81187085  0.63809304     0.06700
H171        H  0.91436353  0.83006249  0.62141797     0.06600
C172        C  0.65897981  0.85586608  0.87066870     0.03600
C173        C  0.66017829  0.83480491  0.87571145    -0.12600
C174        C  0.65984249  0.81984432  0.86011903     0.01100
C175        C  0.65827151  0.82600248  0.83950143    -0.11100
C176        C  0.65755584  0.84695398  0.83422327     0.03600
C177        C  0.65775656  0.86186241  0.84988526    -0.10500
H178        H  0.66154065  0.83008706  0.89168488     0.09200
H179        H  0.65835328  0.81442704  0.82745547     0.06700
H180        H  0.65695958  0.87808510  0.84592093     0.06600
C181        C  0.89546485  0.60724295  0.86451630     0.03600
C182        C  0.90265642  0.60947006  0.84417921    -0.12600
C183        C  0.88871834  0.61247769  0.82790929     0.01100
C184        C  0.86753876  0.61371110  0.83199402    -0.11100
C185        C  0.86024529  0.61202636  0.85222093     0.03600
C186        C  0.87417222  0.60864982  0.86840581    -0.10500
H187        H  0.91907152  0.60924514  0.84103621     0.09200
H188        H  0.85678588  0.61654387  0.81949437     0.06700
H189        H  0.86845223  0.60749809  0.88405984     0.06600
C190        C  0.92733442  0.63335661  0.64401860     0.03600
C191        C  0.92429435  0.65404881  0.63822264    -0.12600
C192        C  0.91933339  0.66900419  0.65307039     0.01100
C193        C  0.91752630  0.66310693  0.67379640    -0.11100
C194        C  0.92032234  0.64250837  0.67971387     0.03600
C195        C  0.92538964  0.62769563  0.66484004    -0.10500
H196        H  0.92574148  0.65847426  0.62217589     0.09200
H197        H  0.91346719  0.67449979  0.68532482     0.06700
H198        H  0.92710449  0.61168139  0.66935317     0.06600
C199        C  0.67295727  0.63153438  0.87618484     0.03600
C200        C  0.66797121  0.65265166  0.87595712    -0.12600
C201        C  0.68360624  0.66757842  0.87505499     0.01100
C202        C  0.70429755  0.66133349  0.87421335    -0.11100
C203        C  0.70943910  0.64034654  0.87420226     0.03600
C204        C  0.69377391  0.62552052  0.87529544    -0.10500
H205        H  0.65196032  0.65747244  0.87586533     0.09200
H206        H  0.71638487  0.67281199  0.87310115     0.06700
H207        H  0.69779413  0.60928437  0.87513385     0.06600
C208        C  0.66681678  0.86972179  0.64668837     0.03600
C209        C  0.68780668  0.86923525  0.64124970    -0.12600
C210        C  0.70299427  0.86354437  0.65573154     0.01100
C211        C  0.69677210  0.85958018  0.67616094    -0.11100
C212        C  0.67605865  0.86135450  0.68206546     0.03600
C213        C  0.66111798  0.86610107  0.66722237    -0.10500
H214        H  0.69216074  0.87311912  0.62564979     0.09200
H215        H  0.70806382  0.85537533  0.68773551     0.06700
H216        H  0.64502188  0.86697792  0.67166367     0.06600
C217        C  0.16561263  0.61426505  0.15002334     0.03600
C218        C  0.16006353  0.61242582  0.17094768    -0.12600
C219        C  0.17385126  0.61816925  0.18673306     0.01100
C220        C  0.19382297  0.62459808  0.18110228    -0.11100
C221        C  0.20003318  0.62512468  0.16044805     0.03600
C222        C  0.18575618  0.62045378  0.14494753    -0.10500
H223        H  0.14502090  0.60635388  0.17477311     0.09200
H224        H  0.20487336  0.62896220  0.19282281     0.06700
H225        H  0.19032279  0.62184679  0.12894519     0.06600
C226        C  0.17557437  0.84896078  0.39296059     0.03600
C227        C  0.19601303  0.85567143  0.39040833    -0.12600
C228        C  0.21196760  0.84138682  0.38713287     0.01100
C229        C  0.20734465  0.82025695  0.38633545    -0.11100
C230        C  0.18704394  0.81334317  0.38914816     0.03600
C231        C  0.17119308  0.82777907  0.39227189    -0.10500
H232        H  0.19940272  0.87202467  0.39032376     0.09200
H233        H  0.21956425  0.80917749  0.38350943     0.06700
H234        H  0.15540667  0.82254197  0.39388225     0.06600
C235        C  0.40752167  0.86288266  0.13832703     0.03600
C236        C  0.40499287  0.84182606  0.13388927    -0.12600
C237        C  0.40347601  0.82730219  0.14983853     0.01100
C238        C  0.40456776  0.83387911  0.17038195    -0.11100
C239        C  0.40636037  0.85486885  0.17510633     0.03600
C240        C  0.40801031  0.86931638  0.15903928    -0.10500
H241        H  0.40361058  0.83678112  0.11803760     0.09200
H242        H  0.40329100  0.82268068  0.18274360     0.06700
H243        H  0.40946476  0.88555775  0.16266994     0.06600
C244        C  0.38854095  0.63907313  0.13892546     0.03600
C245        C  0.39398820  0.65995372  0.13688944    -0.12600
C246        C  0.37881034  0.67541524  0.13685934     0.01100
C247        C  0.35803375  0.66989649  0.13916832    -0.11100
C248        C  0.35224899  0.64916747  0.14118476     0.03600
C249        C  0.36756564  0.63376737  0.14092568    -0.10500
H250        H  0.41007782  0.66418692  0.13531874     0.09200
H251        H  0.34630192  0.68182219  0.13967329     0.06700
H252        H  0.36314383  0.61769692  0.14195907     0.06600
C253        C  0.39588920  0.88132756  0.36208779     0.03600
C254        C  0.40015086  0.88200956  0.34082467    -0.12600
C255        C  0.38444766  0.87855352  0.32636350     0.01100
C256        C  0.36411588  0.87573714  0.33315946    -0.11100
C257        C  0.35949920  0.87587571  0.35425002     0.03600
C258        C  0.37538323  0.87856418  0.36865547    -0.10500
H259        H  0.41580155  0.88444601  0.33551353     0.09200
H260        H  0.35195017  0.87295563  0.32203909     0.06700
H261        H  0.37184246  0.87788821  0.38496534     0.06600
C262        C  0.14286739  0.62879825  0.37571380     0.03600
C263        C  0.14673336  0.64920774  0.38159949    -0.12600
C264        C  0.15249806  0.66386963  0.36683809     0.01100
C265        C  0.15540353  0.65770801  0.34633124    -0.11100
C266        C  0.15109714  0.63740367  0.33996631     0.03600
C267        C  0.14423712  0.62315822  0.35486273    -0.10500
H268        H  0.14532538  0.65363321  0.39764524     0.09200
H269        H  0.16101326  0.66894456  0.33531135     0.06700
H270        H  0.14002916  0.60765295  0.35042396     0.06600
C271        C  0.66752280  0.85923546  0.14713513     0.03600
C272        C  0.66798811  0.83812688  0.14234427    -0.12600
C273        C  0.67122475  0.82342442  0.15790476     0.01100
C274        C  0.67383993  0.82995491  0.17835236    -0.11100
C275        C  0.67309184  0.85100447  0.18329023     0.03600
C276        C  0.66975133  0.86555903  0.16767215    -0.10500
H277        H  0.66593948  0.83316792  0.12653485     0.09200
H278        H  0.67612436  0.81864086  0.19046909     0.06700
H279        H  0.66918570  0.88182921  0.17146307     0.06600
C280        C  0.89902079  0.85012203  0.38975477     0.03600
C281        C  0.87860222  0.85621303  0.38595582    -0.12600
C282        C  0.86367193  0.84160873  0.38055635     0.01100
C283        C  0.86941872  0.82086708  0.37841801    -0.11100
C284        C  0.88979782  0.81438820  0.38229373     0.03600
C285        C  0.90430945  0.82916230  0.38862683    -0.10500
H286        H  0.87435280  0.87234952  0.38710730     0.09200
H287        H  0.85783974  0.80978082  0.37381931     0.06700
H288        H  0.91986610  0.82449945  0.39244302     0.06600
C289        C  0.89120131  0.60632417  0.14716357     0.03600
C290        C  0.87019029  0.60796421  0.14190361    -0.12600
C291        C  0.85524520  0.61097700  0.15722187     0.01100
C292        C  0.86117410  0.61138624  0.17794548    -0.11100
C293        C  0.88193995  0.60944558  0.18352170     0.03600
C294        C  0.89693670  0.60741592  0.16804157    -0.10500
H295        H  0.86552871  0.60764872  0.12586666     0.09200
H296        H  0.84961231  0.61401225  0.18972859     0.06700
H297        H  0.91310116  0.60713878  0.17226172     0.06600
C298        C  0.66881210  0.63464233  0.13704051     0.03600
C299        C  0.68952352  0.62828810  0.13639879    -0.12600
C300        C  0.70550343  0.64280275  0.13612092     0.01100
C301        C  0.70069900  0.66388453  0.13676157    -0.11100
C302        C  0.68011669  0.67051065  0.13757541     0.03600
C303        C  0.66419223  0.65585182  0.13746941    -0.10500
H304        H  0.69323963  0.61197930  0.13618533     0.09200
H305        H  0.71301802  0.67515960  0.13715426     0.06700
H306        H  0.64827615  0.66096747  0.13757144     0.06600
C307        C  0.92934824  0.62755923  0.36642891     0.03600
C308        C  0.92402717  0.62140786  0.34638820    -0.12600
C309        C  0.91656134  0.63583182  0.33213761     0.01100
C310        C  0.91342495  0.65623244  0.33831886    -0.11100
C311        C  0.91903254  0.66288939  0.35813417     0.03600
C312        C  0.92752940  0.64844482  0.37194589    -0.10500
H313        H  0.92548647  0.60536073  0.34195350     0.09200
H314        H  0.90672387  0.66700877  0.32742039     0.06700
H315        H  0.93232742  0.65326320  0.38714349     0.06600
C316        C  0.67635411  0.87198626  0.37102472     0.03600
C317        C  0.69708771  0.87017527  0.37710292    -0.12600
C318        C  0.71280747  0.86992251  0.36227967     0.01100
C319        C  0.70780702  0.87165540  0.34138664    -0.11100
C320        C  0.68722423  0.87336010  0.33505885     0.03600
C321        C  0.67146481  0.87321003  0.34992989    -0.10500
H322        H  0.70096202  0.86883901  0.39330136     0.09200
H323        H  0.71998616  0.87107314  0.32994845     0.06700
H324        H  0.65548541  0.87428997  0.34512378     0.06600
C325        C  0.89582348  0.38081227  0.15316591     0.03600
C326        C  0.90195515  0.37723882  0.17365223    -0.12600
C327        C  0.88711249  0.37507336  0.18928321     0.01100
C328        C  0.86612921  0.37654753  0.18428409    -0.11100
C329        C  0.85984236  0.38071789  0.16402265     0.03600
C330        C  0.87476639  0.38286266  0.14853850    -0.10500
H331        H  0.91817920  0.37551968  0.17731146     0.09200
H332        H  0.85463920  0.37419512  0.19619080     0.06700
H333        H  0.86997624  0.38580481  0.13279970     0.06600
C334        C  0.90147468  0.13029095  0.39423841     0.03600
C335        C  0.88044886  0.12545268  0.39202210    -0.12600
C336        C  0.86582616  0.14121006  0.38914429     0.01100
C337        C  0.87231221  0.16180664  0.38873196    -0.11100
C338        C  0.89321423  0.16679842  0.39086882     0.03600
C339        C  0.90776102  0.15099079  0.39361469    -0.10500
H340        H  0.87558511  0.10947741  0.39187413     0.09200
H341        H  0.86108773  0.17398125  0.38624594     0.06700
H342        H  0.92396450  0.15477792  0.39512765     0.06600
C343        C  0.66057929  0.13859432  0.14112645     0.03600
C344        C  0.66111981  0.15991145  0.13703403    -0.12600
C345        C  0.66771451  0.17398783  0.15225527     0.01100
C346        C  0.67275904  0.16610630  0.17191324    -0.11100
C347        C  0.67056216  0.14510774  0.17653047     0.03600
C348        C  0.66463873  0.13136915  0.16106923    -0.10500
H349        H  0.65634884  0.16529896  0.12199154     0.09200
H350        H  0.67812155  0.17630369  0.18396483     0.06700
H351        H  0.66367689  0.11502235  0.16442646     0.06600
C352        C  0.67251380  0.36609867  0.13713434     0.03600
C353        C  0.69311188  0.37219310  0.13967538    -0.12600
C354        C  0.70858806  0.35752566  0.14309298     0.01100
C355        C  0.70340699  0.33661249  0.14422694    -0.11100
C356        C  0.68313768  0.32986197  0.14035096     0.03600
C357        C  0.66784952  0.34487371  0.13630708    -0.10500
H358        H  0.69711777  0.38839540  0.13913966     0.09200
H359        H  0.71545728  0.32554581  0.14770321     0.06700
H360        H  0.65229433  0.34018077  0.13259796     0.06600
C361        C  0.67844339  0.12559640  0.36394550     0.03600
C362        C  0.69913393  0.12597891  0.37044854    -0.12600
C363        C  0.71519756  0.12663535  0.35595015     0.01100
C364        C  0.71051236  0.12659605  0.33486933    -0.11100
C365        C  0.68996533  0.12640603  0.32817677     0.03600
C366        C  0.67397020  0.12580413  0.34274243    -0.10500
H367        H  0.70273546  0.12580800  0.38675873     0.09200
H368        H  0.72288607  0.12709447  0.32363826     0.06700
H369        H  0.65808601  0.12523809  0.33756670     0.06600
C370        C  0.92460863  0.35282924  0.37361508     0.03600
C371        C  0.92164451  0.35836857  0.35287062    -0.12600
C372        C  0.91677324  0.34331484  0.33815610     0.01100
C373        C  0.91495842  0.32266563  0.34420864    -0.11100
C374        C  0.91765141  0.31696971  0.36488689     0.03600
C375        C  0.92290447  0.33202334  0.37945911    -0.10500
H376        H  0.92286557  0.37438798  0.34822324     0.09200
H377        H  0.91114046  0.31104147  0.33284442     0.06700
H378        H  0.92524089  0.32761516  0.39540931     0.06600
C379        C  0.16596384  0.37835261  0.15530828     0.03600
C380        C  0.16087800  0.37588270  0.17620197    -0.12600
C381        C  0.17635281  0.37289036  0.19105847     0.01100
C382        C  0.19703858  0.37175375  0.18469056    -0.11100
C383        C  0.20229766  0.37335990  0.16375996     0.03600
C384        C  0.18671667  0.37701773  0.14918114    -0.10500
H385        H  0.14482443  0.37602222  0.18084175     0.09200
H386        H  0.20907894  0.36927632  0.19602664     0.06700
H387        H  0.19065606  0.37806588  0.13298228     0.06600
C388        C  0.39901973  0.13546944  0.13950133     0.03600
C389        C  0.39715539  0.12923754  0.16022343    -0.12600
C390        C  0.39604005  0.14399207  0.17600328     0.01100
C391        C  0.39696074  0.16499498  0.17108409    -0.11100
C392        C  0.39923390  0.17148026  0.15058949     0.03600
C393        C  0.40028462  0.15664376  0.13486394    -0.10500
H394        H  0.39621724  0.11298590  0.16403444     0.09200
H395        H  0.39551688  0.17633728  0.18325415     0.06700
H396        H  0.40201356  0.16159600  0.11900133     0.06600
C397        C  0.16968224  0.13213649  0.38946011     0.03600
C398        C  0.19049721  0.12638415  0.38787435    -0.12600
C399        C  0.20597126  0.14139660  0.38683370     0.01100
C400        C  0.20057179  0.16232701  0.38770191    -0.11100
C401        C  0.17981967  0.16833365  0.38911496     0.03600
C402        C  0.16438283  0.15317478  0.38973122    -0.10500
H403        H  0.19467725  0.11018905  0.38754237     0.09200
H404        H  0.21250816  0.17397749  0.38677192     0.06700
H405        H  0.14831089  0.15773544  0.39046233     0.06600
C406        C  0.39280319  0.12145627  0.36388668     0.03600
C407        C  0.37242079  0.12068432  0.37126425    -0.12600
C408        C  0.35577675  0.12047681  0.35747515     0.01100
C409        C  0.35947034  0.12051216  0.33622001    -0.11100
C410        C  0.37965790  0.12110694  0.32858853     0.03600
C411        C  0.39633282  0.12158656  0.34246222    -0.10500
H412        H  0.36949880  0.12076848  0.38770872     0.09200
H413        H  0.34656410  0.12081487  0.32558372     0.06700
H414        H  0.41196599  0.12245814  0.33660889     0.06600
C415        C  0.14381488  0.35513279  0.37718565     0.03600
C416        C  0.14752740  0.33473801  0.38369201    -0.12600
C417        C  0.15297947  0.31948601  0.36939132     0.01100
C418        C  0.15426480  0.32452894  0.34842635    -0.11100
C419        C  0.15003635  0.34462802  0.34156855     0.03600
C420        C  0.14530298  0.35996114  0.35609452    -0.10500
H421        H  0.14650804  0.33080147  0.39990014     0.09200
H422        H  0.15865682  0.31274869  0.33743307     0.06700
H423        H  0.14297557  0.37571046  0.35098113     0.06600
C424        C  0.38838452  0.35991626  0.12654238     0.03600
C425        C  0.39371024  0.33886359  0.12693781    -0.12600
C426        C  0.37841832  0.32372574  0.12890615     0.01100
C427        C  0.35767626  0.32961109  0.13020091    -0.11100
C428        C  0.35196430  0.35046979  0.12942500     0.03600
C429        C  0.36744030  0.36558384  0.12803334    -0.10500
H430        H  0.40977278  0.33426298  0.12620199     0.09200
H431        H  0.34596064  0.31788342  0.13227920     0.06700
H432        H  0.36318816  0.38174413  0.12841721     0.06600
O433        O  0.54917783  0.52040606  0.14761367    -0.72500
O434        O  0.50545282  0.47666348  0.14645115    -0.73500
O435        O  0.54944226  0.47680580  0.14647938    -0.62100
O436        O  0.50537018  0.52050857  0.14766850    -0.70500
O437        O  0.50499935  0.52113866  0.11355175    -0.70000
O438        O  0.54987901  0.47803215  0.11235407    -0.61300
O439        O  0.50577355  0.47718131  0.11231494    -0.73800
O440        O  0.54888211  0.52162927  0.11350045    -0.72600
Cu441      Cu  0.52733276  0.49853545  0.14822437     1.04600
Cu442      Cu  0.52734763  0.49950610  0.11173927     1.04300
C443        C  0.55596121  0.52796178  0.13072401     0.93700
C444        C  0.49857817  0.47005899  0.12923230     0.92900
C445        C  0.55701064  0.47086803  0.12928608     0.85000
C446        C  0.49815805  0.52775596  0.13079883     0.91300
O447        O  0.14607653  0.51689541  0.49350062    -0.72500
O448        O  0.15045819  0.47096802  0.53482611    -0.73500
O449        O  0.14720242  0.47322102  0.49107728    -0.62100
O450        O  0.14930568  0.51469654  0.53682688    -0.70500
O451        O  0.11521739  0.51411136  0.53906439    -0.70000
O452        O  0.11317119  0.47166113  0.49372256    -0.61300
O453        O  0.11642029  0.47014801  0.53750361    -0.73800
O454        O  0.11189621  0.51545879  0.49513857    -0.72600
Cu455      Cu  0.14941991  0.49394548  0.51397644     1.04600
Cu456      Cu  0.11297029  0.49280449  0.51646624     1.04300
C457        C  0.12836299  0.52338464  0.48779093     0.93700
C458        C  0.13414517  0.46328615  0.54278432     0.92900
C459        C  0.12993106  0.46581518  0.48515329     0.85000
C460        C  0.13261662  0.52112621  0.54510701     0.91300
O461        O  0.55841710  0.13956672  0.52053858    -0.72500
O462        O  0.51500889  0.13892117  0.47595914    -0.73500
O463        O  0.51444651  0.14070542  0.51970761    -0.62100
O464        O  0.55904220  0.13799165  0.47688429    -0.70500
O465        O  0.55773418  0.10381457  0.47746105    -0.70000
O466        O  0.51451445  0.10654938  0.52184364    -0.61300
O467        O  0.51374754  0.10485386  0.47802805    -0.73800
O468        O  0.55828389  0.10543680  0.52132706    -0.72600
Cu469      Cu  0.53676100  0.14047940  0.49821208     1.04600
Cu470      Cu  0.53604858  0.10397652  0.49969209     1.04300
C471        C  0.56539557  0.12261099  0.52784255     0.93700
C472        C  0.50720144  0.12175635  0.47022377     0.92900
C473        C  0.50760077  0.12405353  0.52769356     0.85000
C474        C  0.56536312  0.12052373  0.47032930     0.91300
O475        O  0.92684659  0.47291585  0.48400928    -0.72500
O476        O  0.92502895  0.51477593  0.52930473    -0.73500
O477        O  0.92733098  0.51653901  0.48580531    -0.62100
O478        O  0.92458840  0.47124676  0.52751952    -0.70500
O479        O  0.95869556  0.47170775  0.53038348    -0.70000
O480        O  0.96153616  0.51528900  0.48626520    -0.61300
O481        O  0.95921994  0.51555793  0.53016208    -0.73800
O482        O  0.96092797  0.47125528  0.48653445    -0.72600
Cu483      Cu  0.92479528  0.49388957  0.50657084     1.04600
Cu484      Cu  0.96133210  0.49343332  0.50837507     1.04300
C485        C  0.94406173  0.46515172  0.47836804     0.93700
C486        C  0.94176024  0.52180944  0.53690664     0.92900
C487        C  0.94475619  0.52307870  0.47941269     0.85000
C488        C  0.94116026  0.46459853  0.53585613     0.91300
O489        O  0.51258712  0.90017874  0.48122537    -0.72500
O490        O  0.55427756  0.89697882  0.52708681    -0.73500
O491        O  0.55631378  0.89673390  0.48312433    -0.62100
O492        O  0.51039937  0.90028728  0.52496022    -0.70500
O493        O  0.50808187  0.86621623  0.52460747    -0.70000
O494        O  0.55405633  0.86262027  0.48339465    -0.61300
O495        O  0.55191179  0.86286883  0.52693642    -0.73800
O496        O  0.51040096  0.86616071  0.48102580    -0.72600
Cu497      Cu  0.53351443  0.89974083  0.50412511     1.04600
Cu498      Cu  0.53102664  0.86330600  0.50403023     1.04300
C499        C  0.50486130  0.88368790  0.47380417     0.93700
C500        C  0.55986489  0.87939169  0.53407919     0.92900
C501        C  0.56232234  0.87912901  0.47656204     0.85000
C502        C  0.50166165  0.88369255  0.53103799     0.91300
O503        O  0.55606481  0.51539370  0.89022370    -0.72500
O504        O  0.51090724  0.47329090  0.89254567    -0.73500
O505        O  0.55472767  0.47152158  0.89074245    -0.62100
O506        O  0.51225385  0.51695996  0.89204720    -0.70500
O507        O  0.50999855  0.51565559  0.85798137    -0.70000
O508        O  0.55445113  0.47184595  0.85659377    -0.61300
O509        O  0.51053234  0.47180076  0.85837164    -0.73800
O510        O  0.55406127  0.51587642  0.85613714    -0.72600
Cu511      Cu  0.53357467  0.49429751  0.89255498     1.04600
Cu512      Cu  0.53223550  0.49379962  0.85606306     1.04300
C513        C  0.56200755  0.52256720  0.87285876     0.93700
C514        C  0.50357523  0.46593309  0.87584213     0.92900
C515        C  0.56130334  0.46445986  0.87356555     0.85000
C516        C  0.50405640  0.52316089  0.87521799     0.91300
O517        O  0.05695635  0.01017269  0.37964540    -0.72500
O518        O  0.01566535  0.96455554  0.38268711    -0.73500
O519        O  0.01337343  0.00834452  0.38163480    -0.62100
O520        O  0.05912299  0.96647422  0.38082061    -0.70500
O521        O  0.05961908  0.96635777  0.41500650    -0.70000
O522        O  0.01545356  0.01015462  0.41568396    -0.61300
O523        O  0.01581861  0.96617229  0.41686458    -0.73800
O524        O  0.05925518  0.01048470  0.41371555    -0.72600
Cu525      Cu  0.03622373  0.98736372  0.38003879     1.04600
Cu526      Cu  0.03760569  0.98832680  0.41653915     1.04300
C527        C  0.06459860  0.01766172  0.39613167     0.93700
C528        C  0.00927150  0.95810040  0.40014637     0.92900
C529        C  0.00728267  0.01601804  0.39871729     0.85000
C530        C  0.06640442  0.95959110  0.39779033     0.91300
O531        O  0.04728909  0.01767912  0.58707770    -0.72500
O532        O  0.00283764  0.97409351  0.58642682    -0.73500
O533        O  0.00339289  0.01814713  0.58603579    -0.62100
O534        O  0.04687040  0.97348444  0.58741170    -0.70500
O535        O  0.04481723  0.97281621  0.62152245    -0.70000
O536        O  0.00410156  0.01933512  0.62023924    -0.61300
O537        O  0.00122677  0.97566367  0.62053175    -0.73800
O538        O  0.04747110  0.01649832  0.62125175    -0.72600
Cu539      Cu  0.02512965  0.99582692  0.58549433     1.04600
Cu540      Cu  0.02437268  0.99606657  0.62203349     1.04300
C541        C  0.05448817  0.02379786  0.60437094     0.93700
C542        C  0.99479089  0.96828757  0.60346993     0.92900
C543        C  0.99734201  0.02607730  0.60301391     0.85000
C544        C  0.05237139  0.96582057  0.60475036     0.91300
O545        O  0.38743705  0.97691280  0.01912560    -0.72500
O546        O  0.38489863  0.02147179  0.97603212    -0.73500
O547        O  0.38577428  0.97750300  0.97557698    -0.62100
O548        O  0.38655149  0.02085590  0.01987624    -0.70500
O549        O  0.42064240  0.02166938  0.01844686    -0.70000
O550        O  0.41993392  0.97797282  0.97434872    -0.61300
O551        O  0.41906212  0.02173265  0.97447222    -0.73800
O552        O  0.42157577  0.97762632  0.01808582    -0.72600
Cu553      Cu  0.38498891  0.99919883  0.99770747     1.04600
Cu554      Cu  0.42149024  0.99980990  0.99631956     1.04300
C555        C  0.40486487  0.96996859  0.02519732     0.93700
C556        C  0.40159297  0.02854322  0.96832904     0.92900
C557        C  0.40271734  0.97081758  0.96801117     0.85000
C558        C  0.40371643  0.02824014  0.02614524     0.91300
O559        O  0.05517821  0.39658209  0.98984732    -0.72500
O560        O  0.01015786  0.40029007  0.03249411    -0.73500
O561        O  0.05395944  0.39893879  0.03371010    -0.62100
O562        O  0.01140001  0.39807943  0.98858089    -0.70500
O563        O  0.00957611  0.36401638  0.99112242    -0.70000
O564        O  0.05361598  0.36475997  0.03473484    -0.61300
O565        O  0.00987973  0.36620406  0.03480851    -0.73800
O566        O  0.05332001  0.36247874  0.99102724    -0.72600
Cu567      Cu  0.03271390  0.39967524  0.01109305     1.04600
Cu568      Cu  0.03156333  0.36319476  0.01298514     1.04300
C569        C  0.06111535  0.37889385  0.98345645     0.93700
C570        C  0.00299866  0.38376977  0.04051387     0.92900
C571        C  0.06063865  0.38196235  0.04122924     0.85000
C572        C  0.00363347  0.38091559  0.98286206     0.91300
O573        O  0.64269906  0.01654659  0.98351694    -0.72500
O574        O  0.63936788  0.97457230  0.02916447    -0.73500
O575        O  0.63895201  0.01858569  0.02724805    -0.62100
O576        O  0.64266207  0.97307506  0.98558642    -0.70500
O577        O  0.67677112  0.97298521  0.98821051    -0.70000
O578        O  0.67304845  0.01852277  0.03027352    -0.61300
O579        O  0.67349969  0.97502203  0.03181246    -0.73800
O580        O  0.67678802  0.01688680  0.98652369    -0.72600
Cu581      Cu  0.63972891  0.99571173  0.00630986     1.04600
Cu582      Cu  0.67621612  0.99588465  0.00928943     1.04300
C583        C  0.66032402  0.02312558  0.97765776     0.93700
C584        C  0.65601188  0.96808873  0.03756324     0.92900
C585        C  0.65538455  0.02555819  0.03554510     0.85000
C586        C  0.66020002  0.96582546  0.98029356     0.91300
O587        O  0.05162173  0.58780507  0.02981057    -0.72500
O588        O  0.00807863  0.58807324  0.98559938    -0.73500
O589        O  0.05191533  0.58845332  0.98594212    -0.62100
O590        O  0.00761073  0.58760456  0.02935459    -0.70500
O591        O  0.00735913  0.62177432  0.02965987    -0.70000
O592        O  0.05193532  0.62264864  0.98690637    -0.61300
O593        O  0.00809488  0.62223363  0.98580377    -0.73800
O594        O  0.05123572  0.62192022  0.03049619    -0.72600
Cu595      Cu  0.02981315  0.58679326  0.00767945     1.04600
Cu596      Cu  0.02962106  0.62332206  0.00823175     1.04300
C597        C  0.05835392  0.60475974  0.03719673     0.93700
C598        C  0.00134473  0.60521911  0.97853524     0.92900
C599        C  0.05894147  0.60574657  0.97962927     0.85000
C600        C  0.00034223  0.60458227  0.03623531     0.91300
C601        C  0.40485559  0.37587820  0.12607897    -0.11500
C602        C  0.40491741  0.39211444  0.11152358     0.04000
C603        C  0.42056697  0.40699218  0.11200513    -0.12000
C604        C  0.43643436  0.40594888  0.12667464     0.18800
C605        C  0.43661305  0.38960190  0.14096996    -0.09100
C606        C  0.42093859  0.37478509  0.14059724    -0.02100
H607        H  0.42040086  0.41943142  0.10084096     0.05400
C608        C  0.45240803  0.42227353  0.12712769     0.20800
H609        H  0.42122344  0.36241999  0.15183982     0.10500
C610        C  0.45224265  0.43670419  0.14318900    -0.15400
C611        C  0.46696006  0.45245724  0.14412215     0.03500
C612        C  0.48238674  0.45390539  0.12877603    -0.10700
C613        C  0.48230453  0.43955900  0.11254185    -0.00800
C614        C  0.46753503  0.42384443  0.11165190    -0.05900
H615        H  0.44042553  0.43582025  0.15496053     0.06500
H616        H  0.49397753  0.44036286  0.10062627     0.09900
Br617      Br  0.45824976  0.38663441  0.16094274    -0.05600
Br618      Br  0.38479055  0.39414459  0.08991647    -0.02600
Br619      Br  0.46414662  0.47222476  0.16595853     0.00300
Br620      Br  0.46899291  0.40448602  0.08938048    -0.04100
C621        C  0.13996953  0.37162583  0.39259843    -0.11500
C622        C  0.12313689  0.38544469  0.39103624     0.04000
C623        C  0.12081560  0.40130807  0.40551122    -0.12000
C624        C  0.13496806  0.40363035  0.42167471     0.18800
C625        C  0.15132444  0.38945990  0.42365458    -0.09100
C626        C  0.15377407  0.37374487  0.40914731    -0.02100
H627        H  0.10792120  0.41188252  0.40416546     0.05400
C628        C  0.13238976  0.42064625  0.43661555     0.20800
H629        H  0.16669058  0.36322587  0.41069519     0.10500
C630        C  0.11685160  0.41939543  0.45156381    -0.15400
C631        C  0.11526267  0.43422736  0.46716847     0.03500
C632        C  0.12964392  0.45058530  0.46810791    -0.10700
C633        C  0.14467790  0.45215757  0.45256551    -0.00800
C634        C  0.14594719  0.43754734  0.43678810    -0.05900
H635        H  0.10626578  0.40648953  0.45141666     0.06500
H636        H  0.15552302  0.46484491  0.45266163     0.09900
Br637      Br  0.17042890  0.39069516  0.44621930    -0.05600
Br638      Br  0.10223156  0.38273663  0.37026328    -0.02600
Br639      Br  0.09397865  0.43030494  0.48731208     0.00300
Br640      Br  0.16632143  0.44131900  0.41567352    -0.04100
C641        C  0.49060517  0.12156923  0.45435969    -0.11500
C642        C  0.47472701  0.10662029  0.45427891     0.04000
C643        C  0.45945616  0.10714073  0.43897934    -0.12000
C644        C  0.45958886  0.12225411  0.42347802     0.18800
C645        C  0.47527713  0.13725957  0.42360895    -0.09100
C646        C  0.49049613  0.13687814  0.43896899    -0.02100
H647        H  0.44726005  0.09574735  0.43926092     0.05400
C648        C  0.44300401  0.12228241  0.40761307     0.20800
H649        H  0.50251674  0.14845123  0.43866437     0.10500
C650        C  0.42863500  0.13851000  0.40714003    -0.15400
C651        C  0.41244925  0.13868048  0.39280476     0.03500
C652        C  0.41031638  0.12233043  0.37863444    -0.10700
C653        C  0.42487802  0.10628097  0.37888432    -0.00800
C654        C  0.44104203  0.10610127  0.39325209    -0.19100
H655        H  0.42998292  0.15106877  0.41803580     0.06500
H656        H  0.42348168  0.09367179  0.36805284     0.09900
Br657      Br  0.47703983  0.15810544  0.40267025    -0.05600
Br658      Br  0.47211897  0.08583396  0.47523698    -0.02600
Br659      Br  0.39416307  0.16200066  0.39268292     0.00300
Br660      Br  0.46028684  0.08361140  0.39241828    -0.04100
C661        C  0.15362480  0.11596246  0.39036798    -0.11500
C662        C  0.14030927  0.11398658  0.40742821     0.04000
C663        C  0.12596549  0.09788816  0.40807856    -0.12000
C664        C  0.12479897  0.08341960  0.39204947     0.18800
C665        C  0.13806934  0.08545015  0.37496296    -0.09100
C666        C  0.15232884  0.10159317  0.37426463    -0.02100
H667        H  0.11581637  0.09650113  0.42126227     0.05400
C668        C  0.10950578  0.06649675  0.39330140     0.20800
H669        H  0.16259104  0.10285948  0.36115169     0.10500
C670        C  0.09358293  0.06563328  0.37871608    -0.15400
C671        C  0.07890907  0.04986085  0.37923080     0.03500
C672        C  0.07978360  0.03466667  0.39488164    -0.10700
C673        C  0.09555944  0.03577709  0.40969087    -0.00800
C674        C  0.11044095  0.05137435  0.40889933    -0.05900
H675        H  0.09255874  0.07736386  0.36684654     0.06500
H676        H  0.09660255  0.02419280  0.42169755     0.09900
Br677      Br  0.13796965  0.06609150  0.35261721    -0.05600
Br678      Br  0.14201439  0.13196573  0.43082682    -0.02600
Br679      Br  0.05760501  0.05074294  0.35865730     0.00300
Br680      Br  0.13228653  0.05074968  0.42885441    -0.04100
C681        C  0.22785541  0.13534548  0.38474480    -0.11500
C682        C  0.23513947  0.12496192  0.36710090     0.04000
C683        C  0.25621747  0.12079292  0.36501835    -0.12000
C684        C  0.27023881  0.12680704  0.38031749     0.18800
C685        C  0.26289900  0.13659644  0.39821236    -0.09100
C686        C  0.24184483  0.14085759  0.40028666    -0.02100
H687        H  0.26180493  0.11351854  0.35107157     0.05400
C688        C  0.29256169  0.12489013  0.37620972     0.20800
H689        H  0.23637900  0.14871214  0.41396522     0.10500
C690        C  0.30346585  0.14260764  0.37038835    -0.15400
C691        C  0.32422343  0.14138715  0.36480015     0.03500
C692        C  0.33441269  0.12221262  0.36503094    -0.10700
C693        C  0.32369730  0.10451497  0.37133383    -0.00800
C694        C  0.30282630  0.10573991  0.37686894    -0.05900
H695        H  0.29565386  0.15738549  0.36979350     0.06500
H696        H  0.33145721  0.08970530  0.37153172     0.09900
Br697      Br  0.28114894  0.14450979  0.42005800    -0.05600
Br698      Br  0.21725073  0.11769795  0.34469067    -0.02600
Br699      Br  0.33801509  0.16623443  0.35659556     0.00300
Br700      Br  0.28889022  0.08104408  0.38519516    -0.04100
C701        C  0.17437178  0.19050826  0.38884338    -0.11500
C702        C  0.18074131  0.20396223  0.40465412     0.04000
C703        C  0.17668026  0.22514420  0.40307179    -0.12000
C704        C  0.16623026  0.23317929  0.38589901     0.18800
C705        C  0.15971732  0.21969768  0.37019297    -0.09100
C706        C  0.16365611  0.19853431  0.37183781    -0.02100
H707        H  0.18175045  0.23539078  0.41521517     0.05400
C708        C  0.16301538  0.25571693  0.38405337     0.20800
H709        H  0.15891000  0.18837601  0.35948863     0.10500
C710        C  0.17977669  0.26831742  0.37878941    -0.15400
C711        C  0.17689910  0.28933917  0.37472787     0.03500
C712        C  0.15701934  0.29805193  0.37606212    -0.10700
C713        C  0.14045061  0.28567779  0.38235014    -0.00800
C714        C  0.14331232  0.26463334  0.38632159    -0.05900
H715        H  0.19502843  0.26164280  0.37722996     0.06500
H716        H  0.12512562  0.29226607  0.38350246     0.09900
Br717      Br  0.14642292  0.22966406  0.34568075    -0.05600
Br718      Br  0.19458076  0.19400657  0.42886195    -0.02600
Br719      Br  0.20047531  0.30556455  0.36728620     0.00300
Br720      Br  0.11985344  0.24854233  0.39435381    -0.04100
C721        C  0.39975567  0.11985900  0.12273987    -0.11500
C722        C  0.38554285  0.12009318  0.10623435     0.04000
C723        C  0.38673449  0.10507544  0.09077480    -0.12000
C724        C  0.40184364  0.08955604  0.09141097     0.18800
C725        C  0.41608624  0.08934064  0.10782471    -0.09100
C726        C  0.41489498  0.10432908  0.12333117    -0.02100
H727        H  0.37568292  0.10538238  0.07825837     0.05400
C728        C  0.40237959  0.07372040  0.07487831     0.20800
H729        H  0.42590714  0.10391735  0.13587736     0.10500
C730        C  0.41900091  0.07324521  0.06104797    -0.15400
C731        C  0.41987983  0.05868288  0.04510482     0.03500
C732        C  0.40375559  0.04417445  0.04267754    -0.10700
C733        C  0.38704461  0.04488367  0.05650634    -0.00800
C734        C  0.38630103  0.05936021  0.07248119    -0.05900
H735        H  0.43130650  0.08441585  0.06257903     0.06500
H736        H  0.37456823  0.03388985  0.05511902     0.09900
Br737      Br  0.43702842  0.06851575  0.11006721    -0.05600
Br738      Br  0.36342580  0.13976384  0.10459918    -0.02600
Br739      Br  0.44302756  0.06037552  0.02672012     0.00300
Br740      Br  0.36335209  0.05838049  0.09113101    -0.04100
C741        C  0.38396524  0.30174369  0.13124433    -0.11500
C742        C  0.39045704  0.28971528  0.11440361     0.04000
C743        C  0.39420516  0.26858472  0.11708986    -0.12000
C744        C  0.39139264  0.25916686  0.13640385     0.18800
C745        C  0.38517855  0.27133358  0.15328975    -0.09100
C746        C  0.38149760  0.29241390  0.15059001    -0.02100
H747        H  0.39894836  0.25938135  0.10400312     0.05400
C748        C  0.39434728  0.23659349  0.13861216     0.20800
H749        H  0.37634270  0.30154025  0.16358196     0.10500
C750        C  0.41036424  0.22905954  0.15109658    -0.15400
C751        C  0.41261894  0.20788349  0.15473219     0.03500
C752        C  0.39880154  0.19380144  0.14559515    -0.10700
C753        C  0.38328237  0.20131996  0.13247758    -0.00800
C754        C  0.38089416  0.22250160  0.12904678    -0.05900
H755        H  0.42093765  0.23975009  0.15832459     0.06500
H756        H  0.37245122  0.19070942  0.12551273     0.09900
Br757      Br  0.38037861  0.25972874  0.18008952    -0.05600
Br758      Br  0.39322035  0.30125744  0.08731911    -0.02600
Br759      Br  0.43501922  0.19904492  0.17199121     0.00300
Br760      Br  0.35812282  0.23146261  0.11237066    -0.04100
C761        C  0.39355428  0.13785391  0.19779375    -0.11500
C762        C  0.37387137  0.13492956  0.20647478     0.04000
C763        C  0.37186104  0.13148104  0.22772016    -0.12000
C764        C  0.38930668  0.13105256  0.24053975     0.18800
C765        C  0.40902544  0.13337792  0.23171464    -0.09100
C766        C  0.41101107  0.13686791  0.21050911    -0.02100
H767        H  0.35663569  0.12962857  0.23433362     0.05400
C768        C  0.38671782  0.12862095  0.26311027     0.20800
H769        H  0.42620113  0.13919220  0.20396054     0.10500
C770        C  0.38129222  0.10932209  0.27125698    -0.15400
C771        C  0.37924887  0.10649489  0.29258698     0.03500
C772        C  0.38294086  0.12306707  0.30611046    -0.10700
C773        C  0.38813024  0.14240514  0.29793832    -0.00800
C774        C  0.38977355  0.14533772  0.27662050    -0.05900
H775        H  0.37870934  0.09642776  0.26099519     0.06500
H776        H  0.39035952  0.15539479  0.30816896     0.09900
Br777      Br  0.43363229  0.13192321  0.24808490    -0.05600
Br778      Br  0.34938222  0.13640877  0.18994080    -0.02600
Br779      Br  0.37155031  0.07975716  0.30260366     0.00300
Br780      Br  0.39522840  0.17263858  0.26658554    -0.04100
C781        C  0.07617696  0.38232093  0.05793512    -0.11500
C782        C  0.09235607  0.36775305  0.05903884     0.04000
C783        C  0.10621041  0.36825502  0.07556879    -0.12000
C784        C  0.10421664  0.38297493  0.09125787     0.18800
C785        C  0.08826039  0.39767087  0.09007826    -0.09100
C786        C  0.07451025  0.39735102  0.07343500    -0.02100
H787        H  0.11863550  0.35707292  0.07622159     0.05400
C788        C  0.11899147  0.38259674  0.10865311     0.20800
H789        H  0.06210692  0.40855994  0.07290471     0.10500
C790        C  0.13379277  0.39825497  0.11043166    -0.15400
C791        C  0.14885893  0.39747639  0.12589615     0.03500
C792        C  0.14944031  0.38064093  0.13968434    -0.10700
C793        C  0.13417490  0.36537904  0.13829975    -0.00800
C794        C  0.11900865  0.36628478  0.12299804    -0.05900
H795        H  0.13370966  0.41102714  0.09964890     0.06500
H796        H  0.13425969  0.35250534  0.14896294     0.09900
Br797      Br  0.08402148  0.41773249  0.11135572    -0.05600
Br798      Br  0.09702199  0.34750392  0.03798592    -0.02600
Br799      Br  0.16768032  0.42016969  0.12812475     0.00300
Br800      Br  0.09839612  0.34510391  0.12247114    -0.04100
C801        C  0.17096132  0.36940431  0.21303719    -0.11500
C802        C  0.15852619  0.38330780  0.22430674     0.04000
C803        C  0.15407150  0.37933552  0.24506453    -0.12000
C804        C  0.16198735  0.36178124  0.25496050     0.18800
C805        C  0.17435092  0.34790714  0.24376499    -0.09100
C806        C  0.17869891  0.35175665  0.22301375    -0.02100
H807        H  0.14471318  0.39018310  0.25365692     0.05400
C808        C  0.15784654  0.35846143  0.27713556     0.20800
H809        H  0.18823607  0.34090924  0.21461755     0.10500
C810        C  0.14430506  0.34275882  0.28321732    -0.15400
C811        C  0.14103908  0.33844034  0.30411047     0.03500
C812        C  0.15168052  0.34977913  0.31933316    -0.10700
C813        C  0.16468221  0.36595781  0.31316863    -0.00800
C814        C  0.16775380  0.37038241  0.29228238    -0.05900
H815        H  0.13632729  0.33377933  0.27164256     0.06500
H816        H  0.17290750  0.37485053  0.32463356     0.09900
Br817      Br  0.18632188  0.32393249  0.25640271    -0.05600
Br818      Br  0.14846132  0.40865878  0.21271944    -0.02600
Br819      Br  0.12119104  0.31756636  0.31092587     0.00300
Br820      Br  0.18631509  0.39225397  0.28512877    -0.04100
C821        C  0.22402246  0.37064829  0.15709675    -0.11500
C822        C  0.23498730  0.35229114  0.16132309     0.04000
C823        C  0.25566801  0.35045222  0.15542848    -0.12000
C824        C  0.26574556  0.36662209  0.14523384     0.18800
C825        C  0.25467665  0.38469175  0.14038885    -0.09100
C826        C  0.23396709  0.38659726  0.14631900    -0.02100
H827        H  0.26398224  0.33635391  0.15889155     0.05400
C828        C  0.28785784  0.36425611  0.14003848     0.20800
H829        H  0.22566133  0.40066521  0.14272683     0.10500
C830        C  0.29357551  0.35178380  0.12335769    -0.15400
C831        C  0.31439446  0.34787647  0.11906810     0.03500
C832        C  0.32991844  0.35628679  0.13180653    -0.10700
C833        C  0.32413207  0.36932266  0.14808656    -0.00800
C834        C  0.30331345  0.37329337  0.15227754    -0.05900
H835        H  0.28177861  0.34492409  0.11375648     0.06500
H836        H  0.33582008  0.37582554  0.15806137     0.09900
Br837      Br  0.26723740  0.40696731  0.12555245    -0.05600
Br838      Br  0.22221127  0.32888403  0.17418977    -0.02600
Br839      Br  0.32075412  0.33144538  0.09530080     0.00300
Br840      Br  0.29663587  0.39025214  0.17553657    -0.04100
C841        C  0.92912343  0.36887220  0.38919354    -0.11500
C842        C  0.91592362  0.37223654  0.40614869     0.04000
C843        C  0.92029308  0.38796078  0.42019762    -0.12000
C844        C  0.93764545  0.40057157  0.41765520     0.18800
C845        C  0.95097404  0.39713006  0.40090302    -0.09100
C846        C  0.94661423  0.38141474  0.38677310    -0.02100
H847        H  0.90985778  0.39068183  0.43294489     0.05400
C848        C  0.94078917  0.41787070  0.43211647     0.20800
H849        H  0.95685149  0.37901540  0.37380708     0.10500
C850        C  0.95473957  0.41576045  0.44850983    -0.15400
C851        C  0.95651772  0.43120598  0.46350976     0.03500
C852        C  0.94412582  0.44910950  0.46217806    -0.10700
C853        C  0.93049025  0.45127649  0.44548652    -0.00800
C854        C  0.92883331  0.43591366  0.43050384    -0.05900
H855        H  0.96380963  0.40178550  0.44996253     0.06500
H856        H  0.92095086  0.46495169  0.44415943     0.09900
Br857      Br  0.97484438  0.41395467  0.39642943    -0.05600
Br858      Br  0.89094342  0.35686852  0.41007691    -0.02600
Br859      Br  0.97463279  0.42609092  0.48636474     0.00300
Br860      Br  0.90989589  0.44008517  0.40814543    -0.04100
C861        C  0.66158931  0.12425160  0.37933947    -0.11500
C862        C  0.64601221  0.13942158  0.38067099     0.04000
C863        C  0.63045972  0.13761269  0.39550278    -0.12000
C864        C  0.63014936  0.12091877  0.40924868     0.18800
C865        C  0.64561358  0.10573180  0.40795040    -0.09100
C866        C  0.66120060  0.10750518  0.39311330    -0.02100
H867        H  0.61872320  0.14948035  0.39657673     0.05400
C868        C  0.61400462  0.12015774  0.42532211     0.20800
H869        H  0.67307604  0.09575817  0.39230686     0.10500
C870        C  0.59724866  0.10669092  0.42309865    -0.15400
C871        C  0.58129622  0.10637956  0.43767648     0.03500
C872        C  0.58195571  0.11984016  0.45473806    -0.10700
C873        C  0.59880657  0.13323205  0.45691778    -0.00800
C874        C  0.61481319  0.13335085  0.44248483    -0.05900
H875        H  0.59644054  0.09663167  0.40981490     0.06500
H876        H  0.59964070  0.14350071  0.47004296     0.09900
Br877      Br  0.64636809  0.08274146  0.42656448    -0.05600
Br878      Br  0.64595002  0.16363309  0.36368121    -0.02600
Br879      Br  0.55835945  0.08838231  0.43272422     0.00300
Br880      Br  0.63774070  0.15144886  0.44701986    -0.04100
C881        C  0.65593551  0.38193134  0.13534426    -0.11500
C882        C  0.65376658  0.39796287  0.14997729     0.04000
C883        C  0.63781781  0.41239129  0.14795530    -0.12000
C884        C  0.62356545  0.41108439  0.13177558     0.18800
C885        C  0.62567669  0.39520828  0.11714490    -0.09100
C886        C  0.64174499  0.38082590  0.11899631    -0.02100
H887        H  0.63622983  0.42447772  0.15935302     0.05400
C888        C  0.60628936  0.42608282  0.13086616     0.20800
H889        H  0.64312483  0.36868910  0.10763677     0.10500
C890        C  0.60588707  0.44110282  0.11528604    -0.15400
C891        C  0.59003270  0.45582162  0.11438029     0.03500
C892        C  0.57405109  0.45554506  0.12922887    -0.10700
C893        C  0.57467444  0.44057819  0.14490659    -0.00800
C894        C  0.59055332  0.42597096  0.14581465    -0.05900
H895        H  0.61817801  0.44158491  0.10398902     0.06500
H896        H  0.56264521  0.44012395  0.15648080     0.09900
Br897      Br  0.60646459  0.39206082  0.09490257    -0.05600
Br898      Br  0.67094970  0.40020889  0.17400555    -0.02600
Br899      Br  0.59210885  0.47676867  0.09352425     0.00300
Br900      Br  0.58984409  0.40588920  0.16756017    -0.04100
C901        C  0.65758188  0.12353448  0.12432579    -0.11500
C902        C  0.67405590  0.11846940  0.11112427     0.04000
C903        C  0.67172200  0.10287698  0.09647373    -0.12000
C904        C  0.65318375  0.09190360  0.09483622     0.18800
C905        C  0.63670697  0.09681574  0.10815094    -0.09100
C906        C  0.63897887  0.11261364  0.12272982    -0.02100
H907        H  0.68462448  0.09892248  0.08662500     0.05400
C908        C  0.65217901  0.07446513  0.08014574     0.20800
H909        H  0.62642152  0.11602566  0.13319785     0.10500
C910        C  0.66410639  0.05683736  0.08413622    -0.15400
C911        C  0.66503677  0.04063561  0.06996182     0.03500
C912        C  0.65395109  0.04192688  0.05130667    -0.10700
C913        C  0.64152311  0.05931118  0.04756698    -0.00800
C914        C  0.64073725  0.07561740  0.06171597    -0.05900
H915        H  0.67285988  0.05575796  0.09832120     0.06500
H916        H  0.63292830  0.06050936  0.03329665     0.09900
Br917      Br  0.61144629  0.08147383  0.10790646    -0.05600
Br918      Br  0.70057912  0.13129899  0.11365293    -0.02600
Br919      Br  0.68090075  0.01672016  0.07733220     0.00300
Br920      Br  0.62483848  0.09959931  0.05469836    -0.04100
C921        C  0.67352136  0.13788284  0.19791218    -0.11500
C922        C  0.69308509  0.13796617  0.20731949     0.04000
C923        C  0.69489338  0.13359168  0.22837203    -0.12000
C924        C  0.67736530  0.12917163  0.24025318     0.18800
C925        C  0.65792257  0.12825358  0.23066436    -0.09100
C926        C  0.65613122  0.13250073  0.20959248    -0.02100
H927        H  0.70991580  0.13427920  0.23564189     0.05400
C928        C  0.67945102  0.12752500  0.26286206     0.20800
H929        H  0.64102568  0.13236862  0.20245864     0.10500
C930        C  0.67345745  0.14434474  0.27502843    -0.15400
C931        C  0.67640239  0.14408465  0.29636705     0.03500
C932        C  0.68542688  0.12672364  0.30586463    -0.10700
C933        C  0.69122563  0.10978953  0.29370048    -0.00800
C934        C  0.68824956  0.11006796  0.27232728    -0.05900
H935        H  0.66690540  0.15793599  0.26779872     0.06500
H936        H  0.69820888  0.09637986  0.30085961     0.09900
Br937      Br  0.63342696  0.12176516  0.24590200    -0.05600
Br938      Br  0.71761743  0.14418089  0.19202856    -0.02600
Br939      Br  0.66922873  0.16838090  0.31156145     0.00300
Br940      Br  0.69622088  0.08631583  0.25666539    -0.04100
C941        C  0.66863413  0.19687858  0.14846270    -0.11500
C942        C  0.67527875  0.20580749  0.12962557     0.04000
C943        C  0.67561266  0.22733602  0.12730230    -0.12000
C944        C  0.67163461  0.24059391  0.14396403     0.18800
C945        C  0.66585874  0.23170796  0.16298483    -0.09100
C946        C  0.66351370  0.21034394  0.16473115    -0.02100
H947        H  0.67990843  0.23376348  0.11250341     0.05400
C948        C  0.67397410  0.26344015  0.14142427     0.20800
H949        H  0.65817180  0.20427062  0.17932521     0.10500
C950        C  0.65822439  0.27670440  0.14828648    -0.15400
C951        C  0.66078440  0.29818355  0.14853293     0.03500
C952        C  0.67872965  0.30713792  0.13988385    -0.10700
C953        C  0.69375049  0.29379682  0.13155825    -0.00800
C954        C  0.69194726  0.27234590  0.13294753    -0.05900
H955        H  0.64414722  0.27024647  0.15452616     0.06500
H956        H  0.70754192  0.30005594  0.12453890     0.09900
Br957      Br  0.66285388  0.24749894  0.18786160    -0.05600
Br958      Br  0.68674104  0.19018507  0.10724172    -0.02600
Br959      Br  0.64032858  0.31364700  0.16338136     0.00300
Br960      Br  0.71561641  0.25642631  0.12482261    -0.04100
C961        C  0.99109727  0.03220095  0.39884420    -0.11500
C962        C  0.97449081  0.03210835  0.38474383     0.04000
C963        C  0.96023461  0.04835512  0.38468122    -0.12000
C964        C  0.96211491  0.06486910  0.39848201     0.18800
C965        C  0.97832813  0.06472953  0.41293125    -0.09100
C966        C  0.99258482  0.04846672  0.41306327    -0.02100
H967        H  0.94755511  0.04810881  0.37380516     0.05400
C968        C  0.94695909  0.08200377  0.39753381     0.20800
H969        H  0.00521732  0.04883060  0.42398717     0.10500
C970        C  0.93300030  0.08485310  0.41383281    -0.15400
C971        C  0.91822257  0.10063253  0.41313346     0.03500
C972        C  0.91710047  0.11370886  0.39581424    -0.10700
C973        C  0.93122955  0.11104389  0.37965458    -0.00800
C974        C  0.94606217  0.09535201  0.38038646    -0.05900
H975        H  0.93364432  0.07478091  0.42715478     0.06500
H976        H  0.93064103  0.12116995  0.36636511     0.09900
Br977      Br  0.98218925  0.08687314  0.43211693    -0.05600
Br978      Br  0.96970704  0.00972954  0.36601215    -0.02600
Br979      Br  0.90058860  0.10440433  0.43655611     0.00300
Br980      Br  0.96515564  0.09315318  0.35789891    -0.04100
C981        C  0.91475405  0.29526911  0.37122128    -0.11500
C982        C  0.89565045  0.28525769  0.36857586     0.04000
C983        C  0.89366659  0.26444695  0.37380265    -0.12000
C984        C  0.91047481  0.25332810  0.38168624     0.18800
C985        C  0.92944485  0.26337453  0.38472591    -0.09100
C986        C  0.93143628  0.28426361  0.37961652    -0.02100
H987        H  0.87900282  0.25681011  0.37149186     0.05400
C988        C  0.90798715  0.23104332  0.38562070     0.20800
H989        H  0.94614796  0.29183764  0.38180119     0.10500
C990        C  0.91606911  0.21694497  0.37137837    -0.15400
C991        C  0.91195525  0.19585428  0.37320092     0.03500
C992        C  0.89963388  0.18861376  0.38957266    -0.10700
C993        C  0.89198624  0.20270146  0.40410840    -0.00800
C994        C  0.89610161  0.22378912  0.40225016    -0.05900
H995        H  0.92496765  0.22247518  0.35837337     0.06500
H996        H  0.88248471  0.19729541  0.41673318     0.09900
Br997      Br  0.95291026  0.24914705  0.39582098    -0.05600
Br998      Br  0.87165624  0.29940954  0.35843152    -0.02600
Br999      Br  0.92194460  0.17789627  0.35193165     0.00300
Br1000     Br  0.88502906  0.24218622  0.42256899    -0.04100
C1001       C  0.84393743  0.13643781  0.38489688    -0.11500
C1002       C  0.83075712  0.12828183  0.40011983     0.04000
C1003       C  0.80972435  0.12563328  0.39583383    -0.12000
C1004       C  0.80165719  0.13090198  0.37645272     0.18800
C1005       C  0.81490970  0.13865757  0.36114115    -0.09100
C1006       C  0.83583789  0.14143952  0.36545570    -0.02100
H1007       H  0.79958174  0.11974069  0.40771672     0.05400
C1008       C  0.77928826  0.12897937  0.37254673     0.20800
H1009       H  0.84582825  0.14775977  0.35365655     0.10500
C1010       C  0.76625976  0.14561426  0.37723587    -0.15400
C1011       C  0.74525161  0.14496402  0.37226600     0.03500
C1012       C  0.73699305  0.12736878  0.36261278    -0.10700
C1013       C  0.75002266  0.11065788  0.35811591    -0.00800
C1014       C  0.77103429  0.11135584  0.36302639    -0.05900
H1015       H  0.77258644  0.15936480  0.38425459     0.06500
H1016       H  0.74385862  0.09714073  0.35052439     0.09900
Br1017     Br  0.80495353  0.14604172  0.33427208    -0.05600
Br1018     Br  0.84053753  0.12172687  0.42724703    -0.02600
Br1019     Br  0.72880451  0.16902437  0.37749429     0.00300
Br1020     Br  0.78806600  0.08822316  0.35595514    -0.04100
C1021       C  0.91133204  0.38187780  0.13644996    -0.11500
C1022       C  0.91097630  0.36790538  0.11980572     0.04000
C1023       C  0.92578626  0.36936214  0.10421246    -0.12000
C1024       C  0.94121823  0.38446086  0.10494405     0.18800
C1025       C  0.94158308  0.39845962  0.12150536    -0.09100
C1026       C  0.92674425  0.39704517  0.13713761    -0.02100
H1027       H  0.92552305  0.35840952  0.09163062     0.05400
C1028       C  0.95728323  0.38466767  0.08874305     0.20800
H1029       H  0.92720577  0.40782516  0.14985969     0.10500
C1030       C  0.95737946  0.40038602  0.07386475    -0.15400
C1031       C  0.97206657  0.40053609  0.05799545     0.03500
C1032       C  0.98704761  0.38467867  0.05688848    -0.10700
C1033       C  0.98678200  0.36897099  0.07185109    -0.00800
C1034       C  0.97215030  0.36889194  0.08765309    -0.05900
H1035       H  0.94578356  0.41242061  0.07444733     0.06500
H1036       H  0.99817840  0.35674172  0.07141574     0.09900
Br1037     Br  0.96247771  0.41922500  0.12375209    -0.05600
Br1038     Br  0.89149267  0.34569245  0.11827574    -0.02600
Br1039     Br  0.96986186  0.42201713  0.03770284     0.00300
Br1040     Br  0.97337831  0.34715196  0.10773088    -0.04100
C1041       C  0.89317630  0.37028976  0.21076578    -0.11500
C1042       C  0.90487349  0.38416829  0.22267980     0.04000
C1043       C  0.90917205  0.37961344  0.24334833    -0.12000
C1044       C  0.90194472  0.36135906  0.25239321     0.18800
C1045       C  0.89042711  0.34740294  0.24049108    -0.09100
C1046       C  0.88608814  0.35194729  0.21985865    -0.02100
H1047       H  0.91792967  0.39047099  0.25249394     0.05400
C1048       C  0.90621282  0.35728663  0.27437826     0.20800
H1049       H  0.87703799  0.34118504  0.21088360     0.10500
C1050       C  0.89169361  0.36327956  0.28924276    -0.15400
C1051       C  0.89509302  0.35920334  0.31016779     0.03500
C1052       C  0.91324173  0.34897818  0.31640278    -0.10700
C1053       C  0.92776798  0.34304462  0.30151944    -0.00800
C1054       C  0.92441450  0.34722900  0.28062337    -0.05900
H1055       H  0.87759688  0.37092350  0.28451107     0.06500
H1056       H  0.94168951  0.33504263  0.30618112     0.09900
Br1057     Br  0.88026319  0.32206029  0.25187325    -0.05600
Br1058     Br  0.91413148  0.41009924  0.21187715    -0.02600
Br1059     Br  0.87414747  0.36695096  0.32956928     0.00300
Br1060     Br  0.94485642  0.33867439  0.26105858    -0.04100
C1061       C  0.83763001  0.38089423  0.15879515    -0.11500
C1062       C  0.82344993  0.39369224  0.16921228     0.04000
C1063       C  0.80230100  0.39149811  0.16559312    -0.12000
C1064       C  0.79498227  0.37670664  0.15166248     0.18800
C1065       C  0.80918616  0.36474549  0.14039631    -0.09100
C1066       C  0.83031755  0.36690932  0.14402310    -0.02100
H1067       H  0.79147243  0.40103349  0.17401914     0.05400
C1068       C  0.77255329  0.37304669  0.15001511     0.20800
H1069       H  0.84104398  0.35701423  0.13588182     0.10500
C1070       C  0.76219106  0.37795740  0.13167186    -0.15400
C1071       C  0.74126080  0.37331708  0.12926688     0.03500
C1072       C  0.73033296  0.36387507  0.14551681    -0.10700
C1073       C  0.74064465  0.35928860  0.16397559    -0.00800
C1074       C  0.76158739  0.36378662  0.16631877    -0.05900
H1075       H  0.77056170  0.38491457  0.11900674     0.06500
H1076       H  0.73243262  0.35186444  0.17648133     0.09900
Br1077     Br  0.80047028  0.34427206  0.12094743    -0.05600
Br1078     Br  0.83214502  0.41459328  0.18822091    -0.02600
Br1079     Br  0.72877559  0.37862325  0.10296282     0.00300
Br1080     Br  0.77482073  0.35590208  0.19161288    -0.04100
C1081       C  0.65983076  0.87243209  0.38675621    -0.11500
C1082       C  0.65826922  0.88875353  0.40097871     0.04000
C1083       C  0.64258690  0.88868744  0.41578744    -0.12000
C1084       C  0.62826285  0.87252303  0.41674498     0.18800
C1085       C  0.62963830  0.85631612  0.40233603    -0.09100
C1086       C  0.64537416  0.85636367  0.38752660    -0.02100
H1087       H  0.64142030  0.90142737  0.42650418     0.05400
C1088       C  0.61133063  0.87370050  0.43205921     0.20800
H1089       H  0.64632296  0.84384037  0.37653856     0.10500
C1090       C  0.59648908  0.88933784  0.43000312    -0.15400
C1091       C  0.58044780  0.89141458  0.44428742     0.03500
C1092       C  0.57905937  0.87765704  0.46110956    -0.10700
C1093       C  0.59389811  0.86194349  0.46310497    -0.00800
C1094       C  0.61007612  0.86003644  0.44892256    -0.05900
H1095       H  0.59731566  0.89991175  0.41707777     0.06500
H1096       H  0.59315996  0.85135056  0.47601701     0.09900
Br1097     Br  0.60988039  0.83433495  0.40163274    -0.05600
Br1098     Br  0.67645714  0.91204805  0.40004245    -0.02600
Br1099     Br  0.56024129  0.91248916  0.43920682     0.00300
Br1100     Br  0.63058461  0.83921564  0.45381392    -0.04100
C1101       C  0.93446106  0.61179394  0.38217500    -0.11500
C1102       C  0.95231868  0.61290223  0.39457860     0.04000
C1103       C  0.95544318  0.59836646  0.41028151    -0.12000
C1104       C  0.94105058  0.58262679  0.41374851     0.18800
C1105       C  0.92357561  0.58116111  0.40100375    -0.09100
C1106       C  0.92041512  0.59564944  0.38539817    -0.02100
H1107       H  0.96901399  0.59945229  0.41995830     0.05400
C1108       C  0.94378732  0.56838375  0.43129013     0.20800
H1109       H  0.90662602  0.59458224  0.37602679     0.10500
C1110       C  0.93117406  0.57082895  0.44864347    -0.15400
C1111       C  0.93184412  0.55661807  0.46482244     0.03500
C1112       C  0.94531441  0.53954657  0.46373794    -0.10700
C1113       C  0.95868324  0.53767549  0.44680732    -0.00800
C1114       C  0.95792985  0.55191849  0.43057026    -0.05900
H1115       H  0.92050487  0.58368714  0.44941953     0.06500
H1116       H  0.96914294  0.52466644  0.44581451     0.09900
Br1117     Br  0.90356119  0.55965172  0.40441435    -0.05600
Br1118     Br  0.97321361  0.63337828  0.39029964    -0.02600
Br1119     Br  0.91454950  0.56171224  0.48830903     0.00300
Br1120     Br  0.97555010  0.54768756  0.40721466    -0.04100
C1121       C  0.65220517  0.61894282  0.13644273    -0.11500
C1122       C  0.63639717  0.61815129  0.15138780     0.04000
C1123       C  0.62113898  0.60300027  0.15012414    -0.12000
C1124       C  0.62155466  0.58815261  0.13445995     0.18800
C1125       C  0.63753284  0.58860674  0.11979343    -0.09100
C1126       C  0.65259772  0.60396619  0.12080804    -0.02100
H1127       H  0.60898381  0.60263604  0.16157415     0.05400
C1128       C  0.60499835  0.57254353  0.13351734     0.20800
H1129       H  0.66473878  0.60418344  0.10934275     0.10500
C1130       C  0.59114832  0.57291642  0.11693540    -0.15400
C1131       C  0.57505336  0.55864833  0.11561838     0.03500
C1132       C  0.57249905  0.54368727  0.13130148    -0.10700
C1133       C  0.58634250  0.54352825  0.14799503    -0.00800
C1134       C  0.60252187  0.55768888  0.14914527    -0.05900
H1135       H  0.59280421  0.58450999  0.10500697     0.06500
H1136       H  0.58483260  0.53207352  0.16007023     0.09900
Br1137     Br  0.63989917  0.56809073  0.09864256    -0.05600
Br1138     Br  0.63557967  0.63616307  0.17474660    -0.02600
Br1139     Br  0.55668689  0.56131309  0.09253196     0.00300
Br1140     Br  0.62131624  0.55557852  0.17191674    -0.04100
C1141       C  0.90716939  0.60548481  0.13073329    -0.11500
C1142       C  0.92351696  0.59101012  0.13102294     0.04000
C1143       C  0.93846817  0.59135601  0.11545499    -0.12000
C1144       C  0.93744230  0.60582381  0.09941734     0.18800
C1145       C  0.92094182  0.61992480  0.09879874    -0.09100
C1146       C  0.90609804  0.61976120  0.11441945    -0.02100
H1147       H  0.95094500  0.58021437  0.11579989     0.05400
C1148       C  0.95352138  0.60567486  0.08327149     0.20800
H1149       H  0.89370859  0.63098539  0.11388028     0.10500
C1150       C  0.95354570  0.58988198  0.06855708    -0.15400
C1151       C  0.96852600  0.58922068  0.05302565     0.03500
C1152       C  0.98398393  0.60454722  0.05217538    -0.10700
C1153       C  0.98381390  0.62038773  0.06694555    -0.00800
C1154       C  0.96886136  0.62096430  0.08246669    -0.05900
H1155       H  0.94167932  0.57815333  0.06902391     0.06500
H1156       H  0.99558537  0.63221503  0.06664378     0.09900
Br1157     Br  0.91777319  0.63932309  0.07665232    -0.05600
Br1158     Br  0.92568644  0.56963254  0.15143243    -0.02600
Br1159     Br  0.96611473  0.56779268  0.03277983     0.00300
Br1160     Br  0.97035493  0.64254687  0.10260694    -0.04100
C1161       C  0.88801257  0.61162236  0.20538993    -0.11500
C1162       C  0.87907105  0.59946039  0.22108596     0.04000
C1163       C  0.88418652  0.60308058  0.24167842    -0.12000
C1164       C  0.89800500  0.61877329  0.24701313     0.18800
C1165       C  0.90718983  0.63071123  0.23138630    -0.09100
C1166       C  0.90221951  0.62701664  0.21076892    -0.02100
H1167       H  0.87725066  0.59369784  0.25363990     0.05400
C1168       C  0.90244502  0.62254949  0.26898136     0.20800
H1169       H  0.90898854  0.63665143  0.19891588     0.10500
C1170       C  0.92217390  0.61821172  0.27672940    -0.15400
C1171       C  0.92696647  0.62202191  0.29738218     0.03500
C1172       C  0.91170509  0.62991193  0.31070991    -0.10700
C1173       C  0.89189880  0.63401329  0.30295028    -0.00800
C1174       C  0.88722490  0.63050678  0.28224611    -0.05900
H1175       H  0.93399142  0.61223970  0.26654811     0.06500
H1176       H  0.88014836  0.64039360  0.31296488     0.09900
Br1177     Br  0.92564232  0.65297922  0.23749014    -0.05600
Br1178     Br  0.86026461  0.57735473  0.21538763    -0.02600
Br1179     Br  0.95497249  0.61785571  0.30606828     0.00300
Br1180     Br  0.86026194  0.63798994  0.27252599    -0.04100
C1181       C  0.83350726  0.61494738  0.15173293    -0.11500
C1182       C  0.82410366  0.63398288  0.15646535     0.04000
C1183       C  0.80318091  0.63697356  0.15235105    -0.12000
C1184       C  0.79133000  0.62120962  0.14364108     0.18800
C1185       C  0.80073649  0.60232982  0.13849214    -0.09100
C1186       C  0.82177016  0.59934016  0.14246744    -0.02100
H1187       H  0.79603003  0.65158234  0.15621226     0.05400
C1188       C  0.76907748  0.62481906  0.14063812     0.20800
H1189       H  0.82887119  0.58466793  0.13877798     0.10500
C1190       C  0.76241521  0.63651031  0.12370291    -0.15400
C1191       C  0.74163741  0.64200188  0.12157869     0.03500
C1192       C  0.72725345  0.63591027  0.13670832    -0.10700
C1193       C  0.73389494  0.62366446  0.15330308    -0.00800
C1194       C  0.75464610  0.61818357  0.15539552    -0.05900
H1195       H  0.77347270  0.64160097  0.11226933     0.06500
H1196       H  0.72300120  0.61891378  0.16503731     0.09900
Br1197     Br  0.78533417  0.58026474  0.12634097    -0.05600
Br1198     Br  0.83922909  0.65652063  0.16821666    -0.02600
Br1199     Br  0.73362653  0.65732781  0.09753754     0.00300
Br1200     Br  0.76279969  0.60253502  0.17916892    -0.04100
C1201       C  0.91517203  0.86586441  0.39306782    -0.11500
C1202       C  0.92812598  0.86571916  0.41054801     0.04000
C1203       C  0.94367346  0.88055349  0.41247314    -0.12000
C1204       C  0.94655831  0.89555518  0.39716535     0.18800
C1205       C  0.93363272  0.89574304  0.37976327    -0.09100
C1206       C  0.91804988  0.88103237  0.37786975    -0.02100
H1207       H  0.95353495  0.88042414  0.42595258     0.05400
C1208       C  0.96314986  0.91091261  0.39943205     0.20800
H1209       H  0.90831602  0.88123143  0.36429364     0.10500
C1210       C  0.98162445  0.90811520  0.38858700    -0.15400
C1211       C  0.99709969  0.92308045  0.38922058     0.03500
C1212       C  0.99412518  0.94122328  0.40079961    -0.10700
C1213       C  0.97596247  0.94362339  0.41231656    -0.00800
C1214       C  0.96045472  0.92864284  0.41161465    -0.05900
H1215       H  0.98389238  0.89434810  0.37942649     0.06500
H1216       H  0.97353101  0.95748869  0.42128482     0.09900
Br1217     Br  0.93669314  0.91586905  0.35827000    -0.05600
Br1218     Br  0.92470593  0.84624852  0.43258035    -0.02600
Br1219     Br  0.02234177  0.91764236  0.37471178     0.00300
Br1220     Br  0.93545139  0.93337278  0.42668923    -0.04100
C1221       C  0.84183385  0.84781102  0.37807703    -0.11500
C1222       C  0.83081986  0.84393693  0.35974235     0.04000
C1223       C  0.80981466  0.84876280  0.35860348    -0.12000
C1224       C  0.79955194  0.85750711  0.37548158     0.18800
C1225       C  0.81056278  0.86175884  0.39363367    -0.09100
C1226       C  0.83158133  0.85698479  0.39480300    -0.02100
H1227       H  0.80141085  0.84561876  0.34452988     0.05400
C1228       C  0.77720784  0.86148150  0.37396150     0.20800
H1229       H  0.83984040  0.85995424  0.40899807     0.10500
C1230       C  0.76344941  0.84519428  0.37743431    -0.15400
C1231       C  0.74223701  0.84796631  0.37464181     0.03500
C1232       C  0.73460022  0.86726146  0.36817728    -0.10700
C1233       C  0.74834567  0.88366851  0.36511823    -0.00800
C1234       C  0.76954227  0.88092588  0.36807287    -0.05900
H1235       H  0.76929635  0.83016932  0.38187492     0.06500
H1236       H  0.74259226  0.89850044  0.35995657     0.09900
Br1237     Br  0.79730154  0.87347767  0.41730342    -0.05600
Br1238     Br  0.84382506  0.83275716  0.33563543    -0.02600
Br1239     Br  0.72447787  0.82463089  0.37839882     0.00300
Br1240     Br  0.78754145  0.90384737  0.36318583    -0.04100
C1241       C  0.89549486  0.79215875  0.38019436    -0.11500
C1242       C  0.91442350  0.78553936  0.37149543     0.04000
C1243       C  0.91885847  0.76449158  0.37012169    -0.12000
C1244       C  0.90405903  0.74954882  0.37514010     0.18800
C1245       C  0.88493123  0.75607016  0.38321303    -0.09100
C1246       C  0.88118209  0.77705055  0.38636351    -0.02100
H1247       H  0.93367480  0.75974592  0.36402001     0.05400
C1248       C  0.90867177  0.72745659  0.37108234     0.20800
H1249       H  0.86661208  0.78153783  0.39317832     0.10500
C1250       C  0.90577353  0.71274747  0.38672597    -0.15400
C1251       C  0.90851239  0.69167071  0.38294104     0.03500
C1252       C  0.91631466  0.68504959  0.36366880    -0.10700
C1253       C  0.92037309  0.70003127  0.34849003    -0.00800
C1254       C  0.91577180  0.72078378  0.35165537    -0.05900
H1255       H  0.90044591  0.71760660  0.40177886     0.06500
H1256       H  0.92644968  0.69552567  0.33361512     0.09900
Br1257     Br  0.86252499  0.73744207  0.38851908    -0.05600
Br1258     Br  0.93388444  0.80375626  0.35853188    -0.02600
Br1259     Br  0.89871472  0.67311847  0.40387569     0.00300
Br1260     Br  0.91757507  0.73869572  0.32807502    -0.04100
C1261       C  0.65532543  0.95257411  0.05418035    -0.11500
C1262       C  0.64343356  0.93445663  0.05256571     0.04000
C1263       C  0.64435495  0.91957094  0.06821211    -0.12000
C1264       C  0.65697940  0.92249463  0.08550669     0.18800
C1265       C  0.66853796  0.94072014  0.08729843    -0.09100
C1266       C  0.66776701  0.95549984  0.07163398    -0.02100
H1267       H  0.63563483  0.90542711  0.06664288     0.05400
C1268       C  0.65900163  0.90587306  0.10092317     0.20800
H1269       H  0.67699864  0.96931390  0.07305717     0.10500
C1270       C  0.67646940  0.89310710  0.10033138    -0.15400
C1271       C  0.67939875  0.87769370  0.11514174     0.03500
C1272       C  0.66459642  0.87482205  0.13077943    -0.10700
C1273       C  0.64710072  0.88760188  0.13133042    -0.00800
C1274       C  0.64420992  0.90303714  0.11651241    -0.05900
H1275       H  0.68803110  0.89540778  0.08850255     0.06500
H1276       H  0.63573743  0.88562959  0.14340519     0.09900
Br1277     Br  0.68558671  0.94599681  0.11087461    -0.05600
Br1278     Br  0.62728475  0.92838257  0.02854610    -0.02600
Br1279     Br  0.70448639  0.86196190  0.11416403     0.00300
Br1280     Br  0.62029606  0.92035364  0.11852469    -0.04100
C1281       C  0.67507855  0.85770074  0.20492074    -0.11500
C1282       C  0.69384224  0.85574206  0.21568202     0.04000
C1283       C  0.69469227  0.86052097  0.23668416    -0.12000
C1284       C  0.67704148  0.86740520  0.24712984     0.18800
C1285       C  0.65862031  0.87057409  0.23607849    -0.09100
C1286       C  0.65772387  0.86564104  0.21511603    -0.02100
H1287       H  0.70903648  0.85843076  0.24500384     0.05400
C1288       C  0.67790277  0.87000908  0.26972540     0.20800
H1289       H  0.64333066  0.86757411  0.20684469     0.10500
C1290       C  0.68851124  0.88682317  0.27813430    -0.15400
C1291       C  0.69081853  0.88875907  0.29949922     0.03500
C1292       C  0.68248534  0.87363837  0.31276079    -0.10700
C1293       C  0.67134385  0.85717917  0.30431599    -0.00800
C1294       C  0.66915452  0.85519080  0.28297652    -0.05900
H1295       H  0.69523577  0.89830396  0.26803372     0.06500
H1296       H  0.66515778  0.84530973  0.31431447     0.09900
Br1297     Br  0.63438253  0.88146480  0.24908200    -0.05600
Br1298     Br  0.71869721  0.84703547  0.20220968    -0.02600
Br1299     Br  0.70533202  0.91235491  0.30983865     0.00300
Br1300     Br  0.65539167  0.83120062  0.27255359    -0.04100
C1301       C  0.67146273  0.80119102  0.15290211    -0.11500
C1302       C  0.68954242  0.78930312  0.15506527     0.04000
C1303       C  0.68909406  0.76816182  0.15092256    -0.12000
C1304       C  0.67079732  0.75854116  0.14467563     0.18800
C1305       C  0.65274963  0.77039401  0.14229596    -0.09100
C1306       C  0.65321782  0.79162282  0.14626817    -0.02100
H1307       H  0.70304651  0.75911576  0.15275682     0.05400
C1308       C  0.67088940  0.73597834  0.14161398     0.20800
H1309       H  0.63923140  0.80063203  0.14454409     0.10500
C1310       C  0.66475602  0.72318991  0.15791269    -0.15400
C1311       C  0.66713542  0.70178391  0.15665356     0.03500
C1312       C  0.67554648  0.69284369  0.13872612    -0.10700
C1313       C  0.68122380  0.70565889  0.12221504    -0.00800
C1314       C  0.67896201  0.72709166  0.12356254    -0.05900
H1315       H  0.65889571  0.72996817  0.17199741     0.06500
H1316       H  0.68784232  0.69898391  0.10841983     0.09900
Br1317     Br  0.62724269  0.75815614  0.13378617    -0.05600
Br1318     Br  0.71531380  0.80130633  0.16311640    -0.02600
Br1319     Br  0.66065761  0.68577919  0.18062755     0.00300
Br1320     Br  0.68756369  0.74373789  0.10068826    -0.04100
C1321       C  0.13876981  0.61308870  0.39163776    -0.11500
C1322       C  0.15490713  0.60074211  0.39931978     0.04000
C1323       C  0.15106075  0.58659103  0.41510198    -0.12000
C1324       C  0.13122583  0.58445084  0.42343751     0.18800
C1325       C  0.11503738  0.59684027  0.41579012    -0.09100
C1326       C  0.11890900  0.61105983  0.39995803    -0.02100
H1327       H  0.16363578  0.57726400  0.42100079     0.05400
C1328       C  0.12820695  0.56959749  0.44050230     0.20800
H1329       H  0.10648333  0.62071361  0.39428629     0.10500
C1330       C  0.13747163  0.57364669  0.45961323    -0.15400
C1331       C  0.13705756  0.55898489  0.47544093     0.03500
C1332       C  0.12710674  0.53996734  0.47231738    -0.10700
C1333       C  0.11719802  0.53617784  0.45348122    -0.00800
C1334       C  0.11794038  0.55070853  0.43749374    -0.05900
H1335       H  0.14545962  0.58809527  0.46204556     0.06500
H1336       H  0.10975338  0.52147522  0.45084997     0.09900
Br1337     Br  0.08771794  0.59545633  0.42703491    -0.05600
Br1338     Br  0.18258879  0.60320244  0.38916941    -0.02600
Br1339     Br  0.15011703  0.56566579  0.50112035     0.00300
Br1340     Br  0.10632120  0.54337818  0.41132233    -0.04100
C1341       C  0.48916229  0.88459632  0.45703025    -0.11500
C1342       C  0.48564746  0.90239472  0.44476202     0.04000
C1343       C  0.47058198  0.90206675  0.42926529    -0.12000
C1344       C  0.45862966  0.88443804  0.42570696     0.18800
C1345       C  0.46203266  0.86676189  0.43787388    -0.09100
C1346       C  0.47715085  0.86694192  0.45323783    -0.02100
H1347       H  0.46822277  0.91566435  0.41981867     0.05400
C1348       C  0.44297346  0.88458387  0.40901496     0.20800
H1349       H  0.47928389  0.85316574  0.46246397     0.10500
C1350       C  0.44536990  0.87117722  0.39224494    -0.15400
C1351       C  0.43039319  0.86996203  0.37676415     0.03500
C1352       C  0.41275340  0.88280546  0.37757177    -0.10700
C1353       C  0.41063412  0.89656308  0.39416866    -0.00800
C1354       C  0.42548065  0.89748414  0.40982053    -0.05900
H1355       H  0.45874165  0.86115455  0.39150968     0.06500
H1356       H  0.39718235  0.90645387  0.39512202     0.09900
Br1357     Br  0.44590507  0.84217389  0.43469441    -0.05600
Br1358     Br  0.50097363  0.92756133  0.44755593    -0.02600
Br1359     Br  0.43414483  0.84907234  0.35613388     0.00300
Br1360     Br  0.42056378  0.91575307  0.43253693    -0.04100
C1361       C  0.40481824  0.62290086  0.13803351    -0.11500
C1362       C  0.40750711  0.60825228  0.15391352     0.04000
C1363       C  0.42280471  0.59307435  0.15221829    -0.12000
C1364       C  0.43627917  0.59261451  0.13527925     0.18800
C1365       C  0.43398504  0.60762921  0.11967032    -0.09100
C1366       C  0.41829134  0.62244400  0.12107678    -0.02100
H1367       H  0.42440504  0.58172437  0.16438373     0.05400
C1368       C  0.45239708  0.57626300  0.13412028     0.20800
H1369       H  0.41665866  0.63376327  0.10888448     0.10500
C1370       C  0.45243961  0.56256508  0.11738509    -0.15400
C1371       C  0.46719198  0.54681770  0.11580438     0.03500
C1372       C  0.48214422  0.54420467  0.13147620    -0.10700
C1373       C  0.48186686  0.55776888  0.14836899    -0.00800
C1374       C  0.46735726  0.57373782  0.14971251    -0.05900
H1375       H  0.44079684  0.56405754  0.10550040     0.06500
H1376       H  0.49328588  0.55622523  0.16046186     0.09900
Br1377     Br  0.45245819  0.60928126  0.09661501    -0.05600
Br1378     Br  0.39206082  0.60926892  0.17906450    -0.02600
Br1379     Br  0.46523660  0.52893160  0.09233393     0.00300
Br1380     Br  0.46934594  0.59220419  0.17272859    -0.04100
C1381       C  0.40578616  0.95318981  0.04075803    -0.11500
C1382       C  0.39015850  0.93808732  0.04250918     0.04000
C1383       C  0.39111289  0.92335776  0.05828553    -0.12000
C1384       C  0.40762812  0.92301739  0.07222438     0.18800
C1385       C  0.42377422  0.93729400  0.06983053    -0.09100
C1386       C  0.42270884  0.95226123  0.05429141    -0.02100
H1387       H  0.37894303  0.91201226  0.05965016     0.05400
C1388       C  0.40763755  0.90774937  0.08922150     0.20800
H1389       H  0.43501656  0.96346498  0.05304889     0.10500
C1390       C  0.42167096  0.89127392  0.08882915    -0.15400
C1391       C  0.42207540  0.87664035  0.10472804     0.03500
C1392       C  0.40811954  0.87829645  0.12137563    -0.10700
C1393       C  0.39413816  0.89487904  0.12172630    -0.00800
C1394       C  0.39378384  0.90948787  0.10583676    -0.05900
H1395       H  0.43244379  0.88988676  0.07615030     0.06500
H1396       H  0.38328115  0.89635844  0.13432363     0.09900
Br1397     Br  0.44728082  0.93733310  0.08779547    -0.05600
Br1398     Br  0.36789718  0.93570029  0.02311465    -0.02600
Br1399     Br  0.44276027  0.85545597  0.10337080     0.00300
Br1400     Br  0.37439872  0.93180573  0.10770432    -0.04100
C1401       C  0.38946906  0.87626087  0.30425425    -0.11500
C1402       C  0.38820743  0.85687089  0.29457213     0.04000
C1403       C  0.39250931  0.85505282  0.27354338    -0.12000
C1404       C  0.39818146  0.87233327  0.26184516     0.18800
C1405       C  0.39975006  0.89168397  0.27154260    -0.09100
C1406       C  0.39550400  0.89351843  0.29265943    -0.02100
H1407       H  0.39131907  0.84009684  0.26622962     0.05400
C1408       C  0.40166769  0.86978621  0.23944190     0.20800
H1409       H  0.39668146  0.90845805  0.29999881     0.10500
C1410       C  0.38657434  0.87674759  0.22557679    -0.15400
C1411       C  0.38825917  0.87266732  0.20446143     0.03500
C1412       C  0.40531729  0.86147835  0.19691048    -0.10700
C1413       C  0.42064102  0.85489901  0.21074806    -0.00800
C1414       C  0.41895616  0.85902928  0.23186332    -0.05900
H1415       H  0.37307980  0.88477224  0.23130989     0.06500
H1416       H  0.43377370  0.84621741  0.20513372     0.09900
Br1417     Br  0.40793283  0.91582778  0.25656262    -0.05600
Br1418     Br  0.38127061  0.83231168  0.30956017    -0.02600
Br1419     Br  0.36599976  0.88112763  0.18685275     0.00300
Br1420     Br  0.44050457  0.84962145  0.24985339    -0.04100
C1421       C  0.40012289  0.80525794  0.14515726    -0.11500
C1422       C  0.38231427  0.79492015  0.15209583     0.04000
C1423       C  0.38023057  0.77374734  0.14877285    -0.12000
C1424       C  0.39558951  0.76261618  0.13843103     0.18800
C1425       C  0.41295402  0.77303883  0.13065987    -0.09100
C1426       C  0.41512893  0.79425586  0.13406419    -0.02100
H1427       H  0.36665911  0.76586113  0.15447242     0.05400
C1428       C  0.39330319  0.74004912  0.13661848     0.20800
H1429       H  0.42874385  0.80210579  0.12842397     0.10500
C1430       C  0.38059799  0.73191724  0.12118148    -0.15400
C1431       C  0.37629425  0.71077934  0.12051629     0.03500
C1432       C  0.38465568  0.69746776  0.13562020    -0.10700
C1433       C  0.39797155  0.70558986  0.15060675    -0.00800
C1434       C  0.40224749  0.72671234  0.15124272    -0.05900
H1435       H  0.37373606  0.74211015  0.10983610     0.06500
H1436       H  0.40446223  0.69557539  0.16232280     0.09900
Br1437     Br  0.43400376  0.75883338  0.11551718    -0.05600
Br1438     Br  0.36007988  0.80913931  0.16553093    -0.02600
Br1439     Br  0.35927533  0.70086134  0.09845956     0.00300
Br1440     Br  0.41947523  0.73689177  0.17299115    -0.04100
C1441       C  0.15861375  0.86417120  0.39485835    -0.11500
C1442       C  0.15776243  0.87834931  0.41128455     0.04000
C1443       C  0.14210098  0.89323008  0.41188890    -0.12000
C1444       C  0.12710732  0.89420450  0.39633327     0.18800
C1445       C  0.12763422  0.87974187  0.38019332    -0.09100
C1446       C  0.14326751  0.86483725  0.37958864    -0.02100
H1447       H  0.14168457  0.90419030  0.42446116     0.05400
C1448       C  0.11144928  0.91081743  0.39686510     0.20800
H1449       H  0.14367573  0.85395779  0.36694553     0.10500
C1450       C  0.11338668  0.92758150  0.38333142    -0.15400
C1451       C  0.09902101  0.94372502  0.38351608     0.03500
C1452       C  0.08237344  0.94328070  0.39752529    -0.10700
C1453       C  0.08062940  0.92658591  0.41124681    -0.00800
C1454       C  0.09492267  0.91036988  0.41090673    -0.05900
H1455       H  0.12623017  0.92815410  0.37266896     0.06500
H1456       H  0.06782871  0.92591598  0.42195419     0.09900
Br1457     Br  0.10722991  0.87973128  0.35878222    -0.05600
Br1458     Br  0.17711558  0.87754094  0.43362401    -0.02600
Br1459     Br  0.10363641  0.96650555  0.36516320     0.00300
Br1460     Br  0.09088507  0.88754454  0.42929809    -0.04100
C1461       C  0.23328299  0.84848412  0.38308835    -0.11500
C1462       C  0.24503444  0.85889841  0.39810353     0.04000
C1463       C  0.26548457  0.86445109  0.39384083    -0.12000
C1464       C  0.27439290  0.86001296  0.37463506     0.18800
C1465       C  0.26241220  0.85019223  0.35944048    -0.09100
C1466       C  0.24212591  0.84437084  0.36379825    -0.02100
H1467       H  0.27459528  0.87189692  0.40566564     0.05400
C1468       C  0.29647550  0.86457909  0.37096191     0.20800
H1469       H  0.23315496  0.83664702  0.35204046     0.10500
C1470       C  0.31029755  0.84806951  0.36857475    -0.15400
C1471       C  0.33098893  0.85157597  0.36366571     0.03500
C1472       C  0.33818525  0.87186847  0.36113062    -0.10700
C1473       C  0.32458849  0.88844249  0.36416098    -0.00800
C1474       C  0.30383925  0.88493875  0.36912381    -0.05900
H1475       H  0.30484865  0.83236606  0.37017744     0.06500
H1476       H  0.33003544  0.90410765  0.36223384     0.09900
Br1477     Br  0.27294501  0.84485792  0.33232499    -0.05600
Br1478     Br  0.23430413  0.86482985  0.42498552    -0.02600
Br1479     Br  0.34880938  0.82820845  0.36017513     0.00300
Br1480     Br  0.28595498  0.90832314  0.37220266    -0.04100
C1481       C  0.15598313  0.68563725  0.37269229    -0.11500
C1482       C  0.14464598  0.70174967  0.36342462     0.04000
C1483       C  0.14967925  0.72226046  0.36763478    -0.12000
C1484       C  0.16596864  0.72712836  0.38098700     0.18800
C1485       C  0.17656610  0.71105003  0.39114511    -0.09100
C1486       C  0.17151585  0.69047841  0.38694888    -0.02100
H1487       H  0.14110981  0.73451398  0.36012989     0.05400
C1488       C  0.17210393  0.74900669  0.38331390     0.20800
H1489       H  0.18022384  0.67821986  0.39427967     0.10500
C1490       C  0.16918923  0.75906665  0.40223175    -0.15400
C1491       C  0.17423647  0.77994392  0.40450574     0.03500
C1492       C  0.18221796  0.79109923  0.38764302    -0.10700
C1493       C  0.18543389  0.78094622  0.36884701    -0.00800
C1494       C  0.18039792  0.76011309  0.36656063    -0.05900
H1495       H  0.16289427  0.75067030  0.41522248     0.06500
H1496       H  0.19166338  0.78934396  0.35581972     0.09900
Br1497     Br  0.19880031  0.71635042  0.40989164    -0.05600
Br1498     Br  0.12192296  0.69657055  0.34518415    -0.02600
Br1499     Br  0.17072358  0.79236947  0.43108523     0.00300
Br1500     Br  0.18547297  0.74741115  0.34033431    -0.04100
C1501       C  0.14995694  0.61106676  0.13353689    -0.11500
C1502       C  0.15355067  0.59807975  0.11642880     0.04000
C1503       C  0.13890828  0.59683804  0.10055696    -0.12000
C1504       C  0.12051292  0.60821835  0.10145866     0.18800
C1505       C  0.11650289  0.62046753  0.11889900    -0.09100
C1506       C  0.13118610  0.62190896  0.13465018    -0.02100
H1507       H  0.14187739  0.58695110  0.08744346     0.05400
C1508       C  0.10546486  0.60691685  0.08430196     0.20800
H1509       H  0.12803953  0.63180524  0.14771468     0.10500
C1510       C  0.09317870  0.58928585  0.08231611    -0.15400
C1511       C  0.07793161  0.58801813  0.06703667     0.03500
C1512       C  0.07469173  0.60477644  0.05334769    -0.10700
C1513       C  0.08744586  0.62222483  0.05517508    -0.00800
C1514       C  0.10279988  0.62330122  0.07030637    -0.05900
H1515       H  0.09519803  0.57658602  0.09300497     0.06500
H1516       H  0.08561225  0.63509159  0.04465978     0.09900
Br1517     Br  0.09096942  0.63515760  0.12200821    -0.05600
Br1518     Br  0.17753660  0.58079164  0.11449290    -0.02600
Br1519     Br  0.06154571  0.56337952  0.06670252     0.00300
Br1520     Br  0.12007192  0.64728134  0.07105433    -0.04100
C1521       C  0.22192758  0.62914301  0.15537042    -0.11500
C1522       C  0.23142794  0.64813181  0.15991863     0.04000
C1523       C  0.25264185  0.65060169  0.15665220    -0.12000
C1524       C  0.26466712  0.63429025  0.14905157     0.18800
C1525       C  0.25516731  0.61539558  0.14433117    -0.09100
C1526       C  0.23392397  0.61298985  0.14735185    -0.02100
H1527       H  0.25983804  0.66522182  0.16024072     0.05400
C1528       C  0.28714527  0.63719799  0.14646059     0.20800
H1529       H  0.22683363  0.59825649  0.14400864     0.10500
C1530       C  0.30054994  0.63101244  0.16227351    -0.15400
C1531       C  0.32183576  0.63436454  0.16069184     0.03500
C1532       C  0.33003715  0.64394348  0.14296093    -0.10700
C1533       C  0.31654642  0.64995010  0.12707587    -0.00800
C1534       C  0.29527609  0.64662661  0.12871117    -0.05900
H1535       H  0.29436039  0.62393728  0.17608045     0.06500
H1536       H  0.32258846  0.65743508  0.11341860     0.09900
Br1537     Br  0.27073604  0.59241996  0.13410983    -0.05600
Br1538     Br  0.21601690  0.67115133  0.17031918    -0.02600
Br1539     Br  0.33867009  0.62708260  0.18386460     0.00300
Br1540     Br  0.27781032  0.65529181  0.10645896    -0.04100
C1541       C  0.16818223  0.61709373  0.20913999    -0.11500
C1542       C  0.14880649  0.62356727  0.21695491     0.04000
C1543       C  0.14531768  0.62380353  0.23827408    -0.12000
C1544       C  0.16123659  0.61964989  0.25239422     0.18800
C1545       C  0.18041842  0.61281986  0.24466925    -0.09100
C1546       C  0.18337988  0.61087657  0.22341198    -0.02100
H1547       H  0.13034332  0.62861889  0.24391274     0.05400
C1548       C  0.15784279  0.62379199  0.27479546     0.20800
H1549       H  0.19819205  0.60533930  0.21803630     0.10500
C1550       C  0.16285249  0.60872195  0.28958367    -0.15400
C1551       C  0.16150758  0.61285403  0.31076250     0.03500
C1552       C  0.15306332  0.63179559  0.31766285    -0.10700
C1553       C  0.14709697  0.64640873  0.30273538    -0.00800
C1554       C  0.15014552  0.64296115  0.28171284    -0.05900
H1555       H  0.16869238  0.59387658  0.28464913     0.06500
H1556       H  0.14053266  0.66103394  0.30741705     0.09900
Br1557     Br  0.20405102  0.60799732  0.26191477    -0.05600
Br1558     Br  0.12721539  0.63505513  0.20017372    -0.02600
Br1559     Br  0.17396266  0.59297072  0.32891438     0.00300
Br1560     Br  0.14525954  0.66594686  0.26358993    -0.04100
C1561       C  0.65063499  0.87232852  0.63072559    -0.11500
C1562       C  0.65009097  0.88943218  0.61726731     0.04000
C1563       C  0.63492442  0.89060497  0.60192154    -0.12000
C1564       C  0.62001192  0.87507628  0.59986284     0.18800
C1565       C  0.62030518  0.85821665  0.61355941    -0.09100
C1566       C  0.63551985  0.85695656  0.62877759    -0.02100
H1567       H  0.63473447  0.90370688  0.59153899     0.05400
C1568       C  0.60457126  0.87645462  0.58308025     0.20800
H1569       H  0.63568406  0.84375550  0.63903930     0.10500
C1570       C  0.60544930  0.86225007  0.56682722    -0.15400
C1571       C  0.59114804  0.86300799  0.55068183     0.03500
C1572       C  0.57552911  0.87822051  0.55063743    -0.10700
C1573       C  0.57492931  0.89267904  0.56672934    -0.00800
C1574       C  0.58922061  0.89184801  0.58290070    -0.05900
H1575       H  0.61746425  0.85061299  0.56662883     0.06500
H1576       H  0.56305796  0.90445965  0.56692547     0.09900
Br1577     Br  0.59996592  0.83678793  0.61241995    -0.05600
Br1578     Br  0.66890528  0.91208466  0.61983456    -0.02600
Br1579     Br  0.59468809  0.84380759  0.52845519     0.00300
Br1580     Br  0.58671245  0.91156089  0.60477631    -0.04100
C1581       C  0.65653081  0.61564839  0.87569971    -0.11500
C1582       C  0.64090072  0.61464825  0.89080389     0.04000
C1583       C  0.62579764  0.59928995  0.88966112    -0.12000
C1584       C  0.62605204  0.58465047  0.87376368     0.18800
C1585       C  0.64165697  0.58558862  0.85872224    -0.09100
C1586       C  0.65670262  0.60097780  0.85978207    -0.02100
H1587       H  0.61391047  0.59859643  0.90136900     0.05400
C1588       C  0.61000388  0.56844864  0.87326537     0.20800
H1589       H  0.66861287  0.60151136  0.84808750     0.10500
C1590       C  0.59489502  0.56891973  0.85779897    -0.15400
C1591       C  0.57917316  0.55413664  0.85720809     0.03500
C1592       C  0.57841678  0.53845954  0.87237276    -0.10700
C1593       C  0.59360783  0.53810628  0.88783614    -0.00800
C1594       C  0.60930506  0.55284792  0.88834108    -0.05900
H1595       H  0.59518047  0.58105171  0.84630126     0.06500
H1596       H  0.59340687  0.52616342  0.89953008     0.09900
Br1597     Br  0.64348540  0.56576472  0.83688760    -0.05600
Br1598     Br  0.64013372  0.63290908  0.91402227    -0.02600
Br1599     Br  0.55853445  0.55720663  0.83618742     0.00300
Br1600     Br  0.62977464  0.55071768  0.90960781    -0.04100
C1601       C  0.93082731  0.61738061  0.62811291    -0.11500
C1602       C  0.94870993  0.60496600  0.62793986     0.04000
C1603       C  0.95092663  0.58947300  0.61306818    -0.12000
C1604       C  0.93554059  0.58612819  0.59822455     0.18800
C1605       C  0.91777495  0.59867856  0.59830054    -0.09100
C1606       C  0.91559367  0.61418311  0.61309947    -0.02100
H1607       H  0.96467934  0.57995173  0.61309991     0.05400
C1608       C  0.93802308  0.56929674  0.58299602     0.20800
H1609       H  0.90178422  0.62362911  0.61307443     0.10500
C1610       C  0.92499900  0.55209088  0.58412150    -0.15400
C1611       C  0.92624031  0.53629475  0.56950684     0.03500
C1612       C  0.94082615  0.53750983  0.55339248    -0.10700
C1613       C  0.95433848  0.55439955  0.55270284    -0.00800
C1614       C  0.95295690  0.57027675  0.56726003    -0.05900
H1615       H  0.91372228  0.55101905  0.59639709     0.06500
H1616       H  0.96559211  0.55557763  0.54041851     0.09900
Br1617     Br  0.89623428  0.59547074  0.57828426    -0.05600
Br1618     Br  0.97082457  0.60911092  0.64713448    -0.02600
Br1619     Br  0.90830280  0.51300905  0.57296645     0.00300
Br1620     Br  0.97101303  0.59350095  0.56438962    -0.04100
C1621       C  0.91019048  0.60529812  0.88193381    -0.11500
C1622       C  0.92562692  0.58990592  0.88252786     0.04000
C1623       C  0.93979961  0.58944034  0.89884040    -0.12000
C1624       C  0.93872500  0.60396086  0.91481989     0.18800
C1625       C  0.92291750  0.61885803  0.91458171    -0.09100
C1626       C  0.90887931  0.61945846  0.89824174    -0.02100
H1627       H  0.95179004  0.57777964  0.89901582     0.05400
C1628       C  0.95468859  0.60397286  0.93114814     0.20800
H1629       H  0.89704013  0.63127521  0.89811903     0.10500
C1630       C  0.96914445  0.62001056  0.93158527    -0.15400
C1631       C  0.98442390  0.62078637  0.94680453     0.03500
C1632       C  0.98548338  0.60518284  0.96202499    -0.10700
C1633       C  0.97108084  0.58898236  0.96136109    -0.00800
C1634       C  0.95573436  0.58834178  0.94617308    -0.05900
H1635       H  0.96857492  0.63196617  0.91991245     0.06500
H1636       H  0.97152720  0.57691815  0.97292170     0.09900
Br1637     Br  0.91970366  0.63849198  0.93643108    -0.05600
Br1638     Br  0.92746898  0.56861237  0.86208456    -0.02600
Br1639     Br  0.00396410  0.64293416  0.94505082     0.00300
Br1640     Br  0.93604156  0.56631602  0.94701399    -0.04100
C1641       C  0.83815328  0.61510192  0.85653898    -0.11500
C1642       C  0.83042827  0.63474894  0.86150775     0.04000
C1643       C  0.80933881  0.63743643  0.86508057    -0.12000
C1644       C  0.79569175  0.62068346  0.86400536     0.18800
C1645       C  0.80347975  0.60098666  0.85897538    -0.09100
C1646       C  0.82460157  0.59834869  0.85526798    -0.02100
H1647       H  0.80352053  0.65270162  0.86858297     0.05400
C1648       C  0.77337549  0.62437452  0.86740674     0.20800
H1649       H  0.83048706  0.58319705  0.85140816     0.10500
C1650       C  0.75950547  0.62107363  0.85113001    -0.15400
C1651       C  0.73853753  0.62565979  0.85333724     0.03500
C1652       C  0.73119322  0.63402091  0.87195225    -0.10700
C1653       C  0.74496376  0.63722281  0.88829269    -0.00800
C1654       C  0.76589722  0.63231898  0.88621405    -0.05900
H1655       H  0.76509058  0.61527486  0.83651133     0.06500
H1656       H  0.73939666  0.64357129  0.90268962     0.09900
Br1657     Br  0.78606226  0.57714795  0.85752325    -0.05600
Br1658     Br  0.84812853  0.65835483  0.86327325    -0.02600
Br1659     Br  0.72068111  0.62126183  0.83017549     0.00300
Br1660     Br  0.78354656  0.63632595  0.90961741    -0.04100
C1661       C  0.89617475  0.61544960  0.80666038    -0.11500
C1662       C  0.89482617  0.59955175  0.79199304     0.04000
C1663       C  0.90028360  0.60339238  0.77147865    -0.12000
C1664       C  0.90703676  0.62299583  0.76535355     0.18800
C1665       C  0.90864980  0.63882199  0.78008646    -0.09100
C1666       C  0.90334043  0.63493219  0.80062726    -0.02100
H1667       H  0.89887207  0.59119206  0.76018635     0.05400
C1668       C  0.91079646  0.62710441  0.74329584     0.20800
H1669       H  0.90418491  0.64729803  0.81179890     0.10500
C1670       C  0.89391993  0.63163103  0.73056741    -0.15400
C1671       C  0.89680428  0.63634991  0.70974840     0.03500
C1672       C  0.91683355  0.63644736  0.70135718    -0.10700
C1673       C  0.93370788  0.63145638  0.71397394    -0.00800
C1674       C  0.93080977  0.62687497  0.73488688    -0.05900
H1675       H  0.87847246  0.63171082  0.73692933     0.06500
H1676       H  0.94915913  0.63150455  0.70762787     0.09900
Br1677     Br  0.91697659  0.66618761  0.77256311    -0.05600
Br1678     Br  0.88526668  0.57254988  0.79931928    -0.02600
Br1679     Br  0.87293043  0.64230864  0.69327749     0.00300
Br1680     Br  0.95448368  0.62061308  0.75148818    -0.04100
C1681       C  0.65952216  0.87168419  0.88705393    -0.11500
C1682       C  0.64357130  0.87335453  0.90169950     0.04000
C1683       C  0.64447519  0.88861687  0.91688905    -0.12000
C1684       C  0.66106119  0.90246004  0.91768360     0.18800
C1685       C  0.67701580  0.90080879  0.90305310    -0.09100
C1686       C  0.67612126  0.88553643  0.88784604    -0.02100
H1687       H  0.63204915  0.88989433  0.92797191     0.05400
C1688       C  0.66110079  0.91884661  0.93353495     0.20800
H1689       H  0.68840447  0.88445980  0.87658218     0.10500
C1690       C  0.67499671  0.91768925  0.95008605    -0.15400
C1691       C  0.67505629  0.93278697  0.96552853     0.03500
C1692       C  0.66103268  0.94944625  0.96446648    -0.10700
C1693       C  0.64705443  0.95041488  0.94794590    -0.00800
C1694       C  0.64703806  0.93537045  0.93255576    -0.05900
H1695       H  0.68563259  0.90482204  0.95112803     0.06500
H1696       H  0.63619573  0.96309052  0.94686295     0.09900
Br1697     Br  0.69988009  0.91953769  0.90282207    -0.05600
Br1698     Br  0.61967302  0.85597539  0.90082640    -0.02600
Br1699     Br  0.69347506  0.92896350  0.98838738     0.00300
Br1700     Br  0.62785637  0.93832485  0.91021242    -0.04100
C1701       C  0.65727569  0.85283363  0.81218658    -0.11500
C1702       C  0.67345411  0.86431133  0.80326769     0.04000
C1703       C  0.67417988  0.86699188  0.78188230    -0.12000
C1704       C  0.65906442  0.85828587  0.76915760     0.18800
C1705       C  0.64251078  0.84751554  0.77805823    -0.09100
C1706       C  0.64170379  0.84486542  0.79943037    -0.02100
H1707       H  0.68707141  0.87512291  0.77505968     0.05400
C1708       C  0.66197542  0.85886129  0.74662563     0.20800
H1709       H  0.62920374  0.83602059  0.80609039     0.10500
C1710       C  0.67013077  0.84142887  0.73677539    -0.15400
C1711       C  0.67433206  0.84169857  0.71564286     0.03500
C1712       C  0.67029580  0.85966272  0.70404707    -0.10700
C1713       C  0.66160107  0.87690496  0.71385946    -0.00800
C1714       C  0.65754321  0.87664811  0.73502711    -0.05900
H1715       H  0.67347423  0.82764839  0.74564499     0.06500
H1716       H  0.65848037  0.89081228  0.70511133     0.09900
Br1717     Br  0.62107984  0.83570277  0.76149670    -0.05600
Br1718     Br  0.69607165  0.87477018  0.81920692    -0.02600
Br1719     Br  0.68509990  0.81704111  0.70332926     0.00300
Br1720     Br  0.64614385  0.90089062  0.74752635    -0.04100
C1721       C  0.67842175  0.68972812  0.87365888    -0.11500
C1722       C  0.67002277  0.70054134  0.89050494     0.04000
C1723       C  0.66592997  0.72168320  0.88876128    -0.12000
C1724       C  0.67017661  0.73226170  0.87039383     0.18800
C1725       C  0.67850606  0.72146056  0.85353507    -0.09100
C1726       C  0.68258653  0.70034533  0.85526614    -0.02100
H1727       H  0.65975572  0.72997880  0.90186521     0.05400
C1728       C  0.66674892  0.75473975  0.86931009     0.20800
H1729       H  0.68911467  0.69217497  0.84225078     0.10500
C1730       C  0.68318525  0.76802675  0.87373690    -0.15400
C1731       C  0.68094537  0.78937767  0.87156251     0.03500
C1732       C  0.66198011  0.79768624  0.86492717    -0.10700
C1733       C  0.64542303  0.78438433  0.86084647    -0.00800
C1734       C  0.64766869  0.76302593  0.86308129    -0.05900
H1735       H  0.69795470  0.76170834  0.87838468     0.06500
H1736       H  0.63085290  0.79062769  0.85551838     0.09900
Br1737     Br  0.68471312  0.73503128  0.82798543    -0.05600
Br1738     Br  0.66513996  0.68738794  0.91652418    -0.02600
Br1739     Br  0.70462683  0.80641620  0.87630927     0.00300
Br1740     Br  0.62461084  0.74566814  0.85678394    -0.04100
C1741       C  0.90624313  0.87042153  0.61445330    -0.11500
C1742       C  0.90569171  0.88240707  0.59629021     0.04000
C1743       C  0.91990599  0.89846698  0.59353485    -0.12000
C1744       C  0.93472065  0.90282892  0.60869555     0.18800
C1745       C  0.93535832  0.89073134  0.62671964    -0.09100
C1746       C  0.92126890  0.87467837  0.62942409    -0.02100
H1747       H  0.91936480  0.90763773  0.57957337     0.05400
C1748       C  0.94920688  0.92023538  0.60583103     0.20800
H1749       H  0.92184418  0.86563328  0.64347185     0.10500
C1750       C  0.94692486  0.93788550  0.61807790    -0.15400
C1751       C  0.96129621  0.95392906  0.61714999     0.03500
C1752       C  0.97828585  0.95255485  0.60360394    -0.10700
C1753       C  0.98006415  0.93524760  0.59071821    -0.00800
C1754       C  0.96579187  0.91907796  0.59187372    -0.05900
H1755       H  0.93407775  0.93899633  0.62869268     0.06500
H1756       H  0.99306041  0.93390099  0.58031664     0.09900
Br1757     Br  0.95538976  0.89539906  0.64797954    -0.05600
Br1758     Br  0.88642746  0.87695359  0.57453967    -0.02600
Br1759     Br  0.95652964  0.97756487  0.63430713     0.00300
Br1760     Br  0.97031250  0.89513062  0.57515497    -0.04100
C1761       C  0.89137805  0.79696181  0.63282622    -0.11500
C1762       C  0.88814147  0.78645076  0.65160725     0.04000
C1763       C  0.89375178  0.76569498  0.65346247    -0.12000
C1764       C  0.90281546  0.75510514  0.63694050     0.18800
C1765       C  0.90637045  0.76562812  0.61828634    -0.09100
C1766       C  0.90070772  0.78640315  0.61637041    -0.02100
H1767       H  0.89109726  0.75775282  0.66791960     0.05400
C1768       C  0.90833805  0.73309652  0.63964474     0.20800
H1769       H  0.90327808  0.79426082  0.60185460     0.10500
C1770       C  0.89671209  0.71789499  0.62959294    -0.15400
C1771       C  0.90032556  0.69690715  0.63336482     0.03500
C1772       C  0.91596049  0.69087665  0.64727997    -0.10700
C1773       C  0.92779853  0.70613620  0.65700889    -0.00800
C1774       C  0.92408445  0.72706579  0.65333487    -0.05900
H1775       H  0.88432147  0.72240268  0.61931901     0.06500
H1776       H  0.93982286  0.70173008  0.66775336     0.09900
Br1777     Br  0.91922525  0.75236725  0.59520870    -0.05600
Br1778     Br  0.87704583  0.79986240  0.67552455    -0.02600
Br1779     Br  0.88224896  0.67729597  0.62060650     0.00300
Br1780     Br  0.94083372  0.74689440  0.66745600    -0.04100
C1781       C  0.83359302  0.84834579  0.63092149    -0.11500
C1782       C  0.82624678  0.86725236  0.63909093     0.04000
C1783       C  0.80500432  0.87050216  0.64147318    -0.12000
C1784       C  0.79070820  0.85465792  0.63788813     0.18800
C1785       C  0.79807123  0.83556802  0.63044704    -0.09100
C1786       C  0.81904308  0.83293981  0.62627745    -0.02100
H1787       H  0.79967667  0.88533471  0.64699430     0.05400
C1788       C  0.76835957  0.85819456  0.64216784     0.20800
H1789       H  0.82400395  0.81835343  0.61986336     0.10500
C1790       C  0.75369026  0.85307265  0.62710539    -0.15400
C1791       C  0.73251126  0.85397696  0.63120933     0.03500
C1792       C  0.72538310  0.86229426  0.65010758    -0.10700
C1793       C  0.74020283  0.86875665  0.66460820    -0.00800
C1794       C  0.76132467  0.86604031  0.66119920    -0.05900
H1795       H  0.75876617  0.84728959  0.61229596     0.06500
H1796       H  0.73539382  0.87542487  0.67912032     0.09900
Br1797     Br  0.78077764  0.81172230  0.62733685    -0.05600
Br1798     Br  0.84392812  0.88844029  0.64981145    -0.02600
Br1799     Br  0.71490658  0.84093882  0.61128722     0.00300
Br1800     Br  0.77941114  0.87158935  0.68399534    -0.04100
C1801       C  0.40481930  0.88110957  0.62148561    -0.11500
C1802       C  0.42277605  0.86873105  0.62230797     0.04000
C1803       C  0.43811564  0.87102087  0.60732082    -0.12000
C1804       C  0.43597783  0.88541873  0.59133681     0.18800
C1805       C  0.41810971  0.89772921  0.59038507    -0.09100
C1806       C  0.40273730  0.89553455  0.60539536    -0.02100
H1807       H  0.45167171  0.86123344  0.60790992     0.05400
C1808       C  0.45202311  0.88622091  0.57515626     0.20800
H1809       H  0.38906811  0.90513432  0.60449403     0.10500
C1810       C  0.45229797  0.87080083  0.56008782    -0.15400
C1811       C  0.46800234  0.86996578  0.54533648     0.03500
C1812       C  0.48408781  0.88467908  0.54566761    -0.10700
C1813       C  0.48339649  0.90051557  0.56045400    -0.00800
C1814       C  0.46758247  0.90131266  0.57517184    -0.05900
H1815       H  0.44021976  0.85928071  0.55986435     0.06500
H1816       H  0.49547867  0.91201554  0.56091975     0.09900
Br1817     Br  0.41383341  0.91725136  0.56855903    -0.05600
Br1818     Br  0.42666330  0.84737642  0.64249538    -0.02600
Br1819     Br  0.46582719  0.84894070  0.52462395     0.00300
Br1820     Br  0.46819504  0.92277021  0.59546351    -0.04100
C1821       C  0.14313354  0.61876374  0.63451845    -0.11500
C1822       C  0.15827256  0.60317988  0.63316756     0.04000
C1823       C  0.15582334  0.58697987  0.61916996    -0.12000
C1824       C  0.13852476  0.58605501  0.60619155     0.18800
C1825       C  0.12325057  0.60149425  0.60773946    -0.09100
C1826       C  0.12570292  0.61772878  0.62174902    -0.02100
H1827       H  0.16766587  0.57521233  0.61813142     0.05400
C1828       C  0.13708238  0.56928902  0.59070990     0.20800
H1829       H  0.11397893  0.62962251  0.62266836     0.10500
C1830       C  0.12113014  0.55474068  0.59204625    -0.15400
C1831       C  0.11920608  0.53895719  0.57742161     0.03500
C1832       C  0.13373945  0.53728619  0.56125381    -0.10700
C1833       C  0.14991206  0.55166122  0.56026440    -0.00800
C1834       C  0.15154358  0.56763305  0.57460220    -0.05900
H1835       H  0.11007653  0.55571529  0.60453156     0.06500
H1836       H  0.16113370  0.55080983  0.54792270     0.09900
Br1837     Br  0.09920849  0.60154726  0.59049393    -0.05600
Br1838     Br  0.18315982  0.60398923  0.64919698    -0.02600
Br1839     Br  0.09693557  0.51981862  0.58100684     0.00300
Br1840     Br  0.17318336  0.58744188  0.57079039    -0.04100
C1841       C  0.41050887  0.61829877  0.87713568    -0.11500
C1842       C  0.41394944  0.60595957  0.89474199     0.04000
C1843       C  0.42940830  0.59078485  0.89456494    -0.12000
C1844       C  0.44182709  0.58773248  0.87708801     0.18800
C1845       C  0.43867958  0.60038876  0.85966083    -0.09100
C1846       C  0.42317356  0.61549534  0.85980769    -0.02100
H1847       H  0.43172916  0.58128248  0.90811606     0.05400
C1848       C  0.45767434  0.57106929  0.87710990     0.20800
H1849       H  0.42080542  0.62493016  0.84621522     0.10500
C1850       C  0.45535125  0.55420108  0.86376824    -0.15400
C1851       C  0.47014155  0.53840877  0.86300490     0.03500
C1852       C  0.48774618  0.53926768  0.87579731    -0.10700
C1853       C  0.48974252  0.55584731  0.88957608    -0.00800
C1854       C  0.47498202  0.57167776  0.89025467    -0.05900
H1855       H  0.44188188  0.55328946  0.85393217     0.06500
H1856       H  0.50309031  0.55673293  0.89957888     0.09900
Br1857     Br  0.45551177  0.59795770  0.83546480    -0.05600
Br1858     Br  0.39856235  0.60987042  0.91969100    -0.02600
Br1859     Br  0.46474109  0.51543043  0.84519768     0.00300
Br1860     Br  0.47962985  0.59423645  0.90875720    -0.04100
C1861       C  0.15302005  0.61686619  0.88723944    -0.11500
C1862       C  0.13811011  0.63229931  0.89087495     0.04000
C1863       C  0.12350777  0.62962955  0.90649400    -0.12000
C1864       C  0.12352528  0.61178833  0.91873701     0.18800
C1865       C  0.13853610  0.59646539  0.91528481    -0.09100
C1866       C  0.15319906  0.59913254  0.89967954    -0.02100
H1867       H  0.11208000  0.64154673  0.90914954     0.05400
C1868       C  0.10763616  0.60951437  0.93490831     0.20800
H1869       H  0.16463880  0.58721797  0.89706890     0.10500
C1870       C  0.09166328  0.59521329  0.93219017    -0.15400
C1871       C  0.07573038  0.59352735  0.94666023     0.03500
C1872       C  0.07560743  0.60643143  0.96415026    -0.10700
C1873       C  0.09166628  0.62067499  0.96683618    -0.00800
C1874       C  0.10766183  0.62218806  0.95248356    -0.05900
H1875       H  0.09140087  0.58560831  0.91854672     0.06500
H1876       H  0.09188035  0.63055470  0.98028581     0.09900
Br1877     Br  0.13981941  0.57191087  0.93175768    -0.05600
Br1878     Br  0.13756862  0.65768336  0.87561279    -0.02600
Br1879     Br  0.05382784  0.57451109  0.94091152     0.00300
Br1880     Br  0.12948395  0.64141893  0.95775125    -0.04100
C1881       C  0.33466537  0.63502312  0.87657999    -0.11500
C1882       C  0.32661781  0.62098284  0.86203118     0.04000
C1883       C  0.30531349  0.61751386  0.86104027    -0.12000
C1884       C  0.29173096  0.62799277  0.87418127     0.18800
C1885       C  0.29973402  0.64141382  0.88917505    -0.09100
C1886       C  0.32102118  0.64480708  0.89030704    -0.02100
H1887       H  0.29921869  0.60733637  0.84931619     0.05400
C1888       C  0.26925377  0.62628240  0.87066583     0.20800
H1889       H  0.32690788  0.65564420  0.90153388     0.10500
C1890       C  0.25827566  0.60956645  0.87886269    -0.15400
C1891       C  0.23704022  0.60747871  0.87526794     0.03500
C1892       C  0.22645857  0.62240695  0.86335814    -0.10700
C1893       C  0.23761948  0.63905853  0.85513329    -0.00800
C1894       C  0.25879933  0.64100956  0.85860401    -0.05900
H1895       H  0.26630898  0.59799149  0.88787324     0.06500
H1896       H  0.22981107  0.65063524  0.84592503     0.09900
Br1897     Br  0.28201703  0.65611950  0.90773578    -0.05600
Br1898     Br  0.34356077  0.60782430  0.84165384    -0.02600
Br1899     Br  0.22369542  0.58323554  0.88575923     0.00300
Br1900     Br  0.27298289  0.66379776  0.84615805    -0.04100
C1901       C  0.16879220  0.62630215  0.81266070    -0.11500
C1902       C  0.16673932  0.64647395  0.80489682     0.04000
C1903       C  0.16159181  0.64957378  0.78420107    -0.12000
C1904       C  0.15836546  0.63274818  0.77107013     0.18800
C1905       C  0.15985887  0.61255779  0.77896121    -0.09100
C1906       C  0.16500657  0.60945106  0.79970034    -0.02100
H1907       H  0.16061502  0.66513989  0.77818595     0.05400
C1908       C  0.15568068  0.63659043  0.74881640     0.20800
H1909       H  0.16659479  0.59388962  0.80559321     0.10500
C1910       C  0.17327184  0.64039019  0.73689388    -0.15400
C1911       C  0.17162524  0.64426385  0.71578831     0.03500
C1912       C  0.15209618  0.64449307  0.70630132    -0.10700
C1913       C  0.13444620  0.64059331  0.71820312    -0.00800
C1914       C  0.13611955  0.63673740  0.73940184    -0.05900
H1915       H  0.18837420  0.64021419  0.74405396     0.06500
H1916       H  0.11936159  0.64073485  0.71101748     0.09900
Br1917     Br  0.15603300  0.58890428  0.76168535    -0.05600
Br1918     Br  0.17145239  0.67016009  0.82191742    -0.02600
Br1919     Br  0.19655380  0.64838794  0.70048388     0.00300
Br1920     Br  0.11144191  0.63210489  0.75499261    -0.04100
C1921       C  0.14734052  0.87310406  0.61404046    -0.11500
C1922       C  0.13458913  0.87368361  0.59643793     0.04000
C1923       C  0.11899519  0.88859174  0.59480179    -0.12000
C1924       C  0.11567879  0.90296050  0.61061245     0.18800
C1925       C  0.12815701  0.90212186  0.62839557    -0.09100
C1926       C  0.14397125  0.88742229  0.62989010    -0.02100
H1927       H  0.10942337  0.88901145  0.58112446     0.05400
C1928       C  0.09915000  0.91867398  0.60832370     0.20800
H1929       H  0.15357184  0.88703977  0.64354884     0.10500
C1930       C  0.08147016  0.91736853  0.62070566    -0.15400
C1931       C  0.06587363  0.93229276  0.61942723     0.03500
C1932       C  0.06781324  0.94897141  0.60553504    -0.10700
C1933       C  0.08519025  0.94986551  0.59264239    -0.00800
C1934       C  0.10081609  0.93495089  0.59399797    -0.05900
H1935       H  0.07982620  0.90466947  0.63144732     0.06500
H1936       H  0.08692187  0.96254454  0.58189132     0.09900
Br1937     Br  0.12439560  0.92095879  0.65086134    -0.05600
Br1938     Br  0.13833289  0.85490077  0.57392767    -0.02600
Br1939     Br  0.04178858  0.92845236  0.63621904     0.00300
Br1940     Br  0.12459490  0.93798228  0.57667308    -0.04100
C1941       C  0.32966410  0.87141093  0.63848733    -0.11500
C1942       C  0.31943883  0.88456145  0.62438224     0.04000
C1943       C  0.29850165  0.88147752  0.61995447    -0.12000
C1944       C  0.28741995  0.86559469  0.62952817     0.18800
C1945       C  0.29761679  0.85227581  0.64330805    -0.09100
C1946       C  0.31853151  0.85520527  0.64763424    -0.02100
H1947       H  0.29068379  0.89183771  0.60940823     0.05400
C1948       C  0.26510651  0.86334398  0.62544038     0.20800
H1949       H  0.32610137  0.84489669  0.65841124     0.10500
C1950       C  0.25858528  0.85150579  0.60864088    -0.15400
C1951       C  0.23759970  0.84767951  0.60537370     0.03500
C1952       C  0.22275288  0.85557815  0.61920696    -0.10700
C1953       C  0.22928960  0.86827439  0.63544580    -0.00800
C1954       C  0.25029295  0.87220402  0.63860141    -0.05900
H1955       H  0.26988907  0.84495754  0.59822831     0.06500
H1956       H  0.21808853  0.87453786  0.64613761     0.09900
Br1957     Br  0.28342865  0.83014007  0.65687311    -0.05600
Br1958     Br  0.33265615  0.90796020  0.61200091    -0.02600
Br1959     Br  0.23003522  0.83206552  0.58148932     0.00300
Br1960     Br  0.25821256  0.88924508  0.66138262    -0.04100
C1961       C  0.17022643  0.79978286  0.62292825    -0.11500
C1962       C  0.17693915  0.78455609  0.60893430     0.04000
C1963       C  0.17352384  0.76368061  0.61323737    -0.12000
C1964       C  0.16332439  0.75768052  0.63130268     0.18800
C1965       C  0.15631753  0.77285177  0.64513156    -0.09100
C1966       C  0.15970096  0.79373071  0.64083769    -0.02100
H1967       H  0.17885719  0.75208135  0.60248713     0.05400
C1968       C  0.16066491  0.73551958  0.63585626     0.20800
H1969       H  0.15460720  0.80525657  0.65178364     0.10500
C1970       C  0.17697299  0.72462069  0.64494406    -0.15400
C1971       C  0.17460184  0.70396606  0.65067892     0.03500
C1972       C  0.15559484  0.69391628  0.64745492    -0.10700
C1973       C  0.13954853  0.70462047  0.63755164    -0.00800
C1974       C  0.14198952  0.72530217  0.63174254    -0.05900
H1975       H  0.19151560  0.73229817  0.64780498     0.06500
H1976       H  0.12494356  0.69703033  0.63479672     0.09900
Br1977     Br  0.14275202  0.76563870  0.67039696    -0.05600
Br1978     Br  0.19016187  0.79146460  0.58343145    -0.02600
Br1979     Br  0.19801043  0.69003930  0.66223705     0.00300
Br1980     Br  0.11947281  0.73918945  0.61845864    -0.04100
C1981       C  0.39671300  0.87483567  0.87653883    -0.11500
C1982       C  0.41268201  0.87485267  0.89137455     0.04000
C1983       C  0.41346549  0.89042415  0.90630555    -0.12000
C1984       C  0.39860223  0.90614945  0.90675247     0.18800
C1985       C  0.38289924  0.90638933  0.89177233    -0.09100
C1986       C  0.38200660  0.89079910  0.87692316    -0.02100
H1987       H  0.42579238  0.89033563  0.91757581     0.05400
C1988       C  0.39990115  0.92236698  0.92273458     0.20800
H1989       H  0.36973401  0.89114448  0.86559842     0.10500
C1990       C  0.41518807  0.93756054  0.92121057    -0.15400
C1991       C  0.41649619  0.95345567  0.93576503     0.03500
C1992       C  0.40222762  0.95433058  0.95221864    -0.10700
C1993       C  0.38706428  0.93893748  0.95375483    -0.00800
C1994       C  0.38597149  0.92294838  0.93934741    -0.05900
H1995       H  0.42596296  0.93720669  0.90845921     0.06500
H1996       H  0.37620623  0.93913114  0.96644032     0.09900
Br1997     Br  0.36271624  0.92805075  0.89063133    -0.05600
Br1998     Br  0.43459275  0.85489681  0.89126412    -0.02600
Br1999     Br  0.43727979  0.97409305  0.93153702     0.00300
Br2000     Br  0.36563195  0.90185671  0.94330604    -0.04100
C2001       C  0.39343897  0.80032416  0.85494517    -0.11500
C2002       C  0.37881299  0.79138095  0.86836724     0.04000
C2003       C  0.37887338  0.77001257  0.87170146    -0.12000
C2004       C  0.39334658  0.75727105  0.86189138     0.18800
C2005       C  0.40819812  0.76618512  0.84886076    -0.09100
C2006       C  0.40814704  0.78751818  0.84545317    -0.02100
H2007       H  0.36721172  0.76321910  0.88153265     0.05400
C2008       C  0.39149862  0.73460334  0.86393724     0.20800
H2009       H  0.41950797  0.79413062  0.83515849     0.10500
C2010       C  0.37868253  0.72402455  0.85018964    -0.15400
C2011       C  0.37595172  0.70268723  0.85180293     0.03500
C2012       C  0.38592603  0.69151027  0.86768497    -0.10700
C2013       C  0.39927091  0.70209408  0.88107584    -0.00800
C2014       C  0.40211339  0.72347117  0.87927518    -0.05900
H2015       H  0.37078309  0.73244465  0.83809089     0.06500
H2016       H  0.40710983  0.69379715  0.89329000     0.09900
Br2017     Br  0.42843910  0.74965723  0.83501110    -0.05600
Br2018     Br  0.35737700  0.80728145  0.88119040    -0.02600
Br2019     Br  0.35916683  0.68960866  0.83124187     0.00300
Br2020     Br  0.42039298  0.73694268  0.89814388    -0.04100
C2021       C  0.38128353  0.87751697  0.69497528    -0.11500
C2022       C  0.37311152  0.89196205  0.70899020     0.04000
C2023       C  0.37561283  0.88890285  0.73022890    -0.12000
C2024       C  0.38638725  0.87166551  0.73770370     0.18800
C2025       C  0.39531141  0.85773626  0.72367801    -0.09100
C2026       C  0.39275571  0.86074562  0.70248460    -0.02100
H2027       H  0.36890028  0.89980898  0.74093929     0.05400
C2028       C  0.38719300  0.86762975  0.76010407     0.20800
H2029       H  0.39908126  0.84953554  0.69184657     0.10500
C2030       C  0.37080934  0.85705399  0.76940944    -0.15400
C2031       C  0.37170397  0.85140800  0.79021865     0.03500
C2032       C  0.38921967  0.85643785  0.80207854    -0.10700
C2033       C  0.40532222  0.86761532  0.79287122    -0.00800
C2034       C  0.40445272  0.87312495  0.77200809    -0.05900
H2035       H  0.35742641  0.85288116  0.76034097     0.06500
H2036       H  0.41881658  0.87165136  0.80183117     0.09900
Br2037     Br  0.41028506  0.83389676  0.73289221    -0.05600
Br2038     Br  0.35875385  0.91616649  0.69973679    -0.02600
Br2039     Br  0.34839753  0.83734030  0.80179779     0.00300
Br2040     Br  0.42729732  0.88769461  0.76020596    -0.04100
C2041       C  0.14830696  0.36744745  0.63417432    -0.11500
C2042       C  0.16209901  0.36935215  0.61744132     0.04000
C2043       C  0.15933704  0.38511753  0.60293937    -0.12000
C2044       C  0.14320999  0.39943718  0.60492202     0.18800
C2045       C  0.12949163  0.39762745  0.62168162    -0.09100
C2046       C  0.13213035  0.38175439  0.63611411    -0.02100
H2047       H  0.16998267  0.38636368  0.59013524     0.05400
C2048       C  0.14090265  0.41598016  0.58924851     0.20800
H2049       H  0.12150432  0.38057632  0.64893969     0.10500
C2050       C  0.12330619  0.41633865  0.57668815    -0.15400
C2051       C  0.12067957  0.43151169  0.56152243     0.03500
C2052       C  0.13603469  0.44669856  0.55851387    -0.10700
C2053       C  0.15378203  0.44609446  0.57097696    -0.00800
C2054       C  0.15625399  0.43103539  0.58626462    -0.05900
H2055       H  0.11158518  0.40460091  0.57860711     0.06500
H2056       H  0.16569376  0.45763810  0.56908835     0.09900
Br2057     Br  0.10740422  0.41688567  0.62598674    -0.05600
Br2058     Br  0.18579134  0.35181542  0.61432499    -0.02600
Br2059     Br  0.09626318  0.42974357  0.54491872     0.00300
Br2060     Br  0.18050911  0.43220734  0.60318911    -0.04100
C2061       C  0.40691378  0.12314156  0.61392677    -0.11500
C2062       C  0.41783732  0.14169078  0.61107146     0.04000
C2063       C  0.43440020  0.14240225  0.59719542    -0.12000
C2064       C  0.44029252  0.12480635  0.58602090     0.18800
C2065       C  0.42926875  0.10630312  0.58887028    -0.09100
C2066       C  0.41270590  0.10564532  0.60263747    -0.02100
H2067       H  0.44275828  0.15670876  0.59514799     0.05400
C2068       C  0.45803082  0.12583178  0.57161952     0.20800
H2069       H  0.40445335  0.09128520  0.60477800     0.10500
C2070       C  0.47560870  0.11377531  0.57558656    -0.15400
C2071       C  0.49202520  0.11314585  0.56159789     0.03500
C2072       C  0.49119419  0.12506280  0.54342467    -0.10700
C2073       C  0.47402736  0.13781257  0.53989355    -0.00800
C2074       C  0.45743244  0.13812768  0.55369245    -0.05900
H2075       H  0.47639879  0.10455136  0.58950196     0.06500
H2076       H  0.47318416  0.14700414  0.52595775     0.09900
Br2077     Br  0.43594811  0.08156490  0.57407101    -0.05600
Br2078     Br  0.41027608  0.16650531  0.62524392    -0.02600
Br2079     Br  0.51547981  0.09635148  0.56843451     0.00300
Br2080     Br  0.43379502  0.15454332  0.54665639    -0.04100
C2081       C  0.40943865  0.37323693  0.87981785    -0.11500
C2082       C  0.41089415  0.38699342  0.86303762     0.04000
C2083       C  0.42610240  0.40223732  0.86295341    -0.12000
C2084       C  0.43996780  0.40402880  0.87942212     0.18800
C2085       C  0.43838692  0.39045807  0.89630360    -0.09100
C2086       C  0.42326574  0.37508048  0.89633840    -0.02100
H2087       H  0.42730845  0.41257926  0.84987874     0.05400
C2088       C  0.45630188  0.41981887  0.87842861     0.20800
H2089       H  0.42229420  0.36451803  0.90925464     0.10500
C2090       C  0.45428994  0.43790930  0.89004757    -0.15400
C2091       C  0.46948517  0.45318702  0.88929602     0.03500
C2092       C  0.48702572  0.45042023  0.87673152    -0.10700
C2093       C  0.48882477  0.43244985  0.86485269    -0.00800
C2094       C  0.47368305  0.41714195  0.86571637    -0.05900
H2095       H  0.44077684  0.44019411  0.89960085     0.06500
H2096       H  0.50224201  0.43014087  0.85516972     0.09900
Br2097     Br  0.45691842  0.39206505  0.91928348    -0.05600
Br2098     Br  0.39320724  0.38487537  0.83940120    -0.02600
Br2099     Br  0.46487896  0.47806364  0.90463620     0.00300
Br2100     Br  0.47760992  0.39255094  0.84978369    -0.04100
C2101       C  0.40114178  0.11847447  0.87056291    -0.11500
C2102       C  0.41733394  0.11706584  0.88507344     0.04000
C2103       C  0.41651934  0.10232166  0.90078881    -0.12000
C2104       C  0.39988459  0.08864017  0.90231558     0.18800
C2105       C  0.38373886  0.08992661  0.88783525    -0.09100
C2106       C  0.38448737  0.10472613  0.87207883    -0.02100
H2107       H  0.42906426  0.10135310  0.91178261     0.05400
C2108       C  0.39998201  0.07295893  0.91894210     0.20800
H2109       H  0.37193626  0.10563690  0.86109409     0.10500
C2110       C  0.38615199  0.07480653  0.93546723    -0.15400
C2111       C  0.38644495  0.06062110  0.95179412     0.03500
C2112       C  0.40082410  0.04422560  0.95173573    -0.10700
C2113       C  0.41476899  0.04257295  0.93525468    -0.00800
C2114       C  0.41438545  0.05668553  0.91893298    -0.05900
H2115       H  0.37529239  0.08752197  0.93579623     0.06500
H2116       H  0.42581704  0.03001909  0.93488411     0.09900
Br2117     Br  0.36069567  0.07145002  0.88867472    -0.05600
Br2118     Br  0.44152933  0.13405438  0.88357935    -0.02600
Br2119     Br  0.36788291  0.06529647  0.97436127     0.00300
Br2120     Br  0.43343560  0.05277410  0.89663924    -0.04100
C2121       C  0.40374316  0.19250939  0.85003477    -0.11500
C2122       C  0.38605142  0.20116880  0.85924848     0.04000
C2123       C  0.38548771  0.22220347  0.86371892    -0.12000
C2124       C  0.40225176  0.23491162  0.85893783     0.18800
C2125       C  0.41996176  0.22635100  0.84977457    -0.09100
C2126       C  0.42060047  0.20522926  0.84533480    -0.02100
H2127       H  0.37168854  0.22881032  0.87045292     0.05400
C2128       C  0.40021718  0.25724278  0.86253369     0.20800
H2129       H  0.43417912  0.19873576  0.83807913     0.10500
C2130       C  0.40457339  0.26529607  0.88210021    -0.15400
C2131       C  0.40055152  0.28604445  0.88653010     0.03500
C2132       C  0.39198915  0.29889904  0.87124620    -0.10700
C2133       C  0.38801837  0.29088751  0.85158165    -0.00800
C2134       C  0.39208215  0.27021475  0.84714773    -0.05900
H2135       H  0.41055594  0.25528436  0.89407923     0.06500
H2136       H  0.38132201  0.30067042  0.83978413     0.09900
Br2137     Br  0.44329290  0.24306602  0.84276955    -0.05600
Br2138     Br  0.36166447  0.18527747  0.86459846    -0.02600
Br2139     Br  0.40558971  0.29580384  0.91394926     0.00300
Br2140     Br  0.38544076  0.26006819  0.82019483    -0.04100
C2141       C  0.39727081  0.13900740  0.79546719    -0.11500
C2142       C  0.38610169  0.15200530  0.78187983     0.04000
C2143       C  0.38491482  0.14723360  0.76096280    -0.12000
C2144       C  0.39244315  0.12849098  0.75321144     0.18800
C2145       C  0.40269892  0.11492196  0.76687009    -0.09100
C2146       C  0.40552403  0.12052372  0.78756657    -0.02100
H2147       H  0.37711844  0.15794388  0.75075716     0.05400
C2148       C  0.38881691  0.12365723  0.73101657     0.20800
H2149       H  0.41398354  0.11015339  0.79757783     0.10500
C2150       C  0.40524156  0.11760506  0.71824486    -0.15400
C2151       C  0.40231416  0.11409136  0.69709666     0.03500
C2152       C  0.38304973  0.11879844  0.68776670    -0.10700
C2153       C  0.36677282  0.12504786  0.70074819    -0.00800
C2154       C  0.36917935  0.12635170  0.72205268    -0.05900
H2155       H  0.42044363  0.11531594  0.72476917     0.06500
H2156       H  0.35180285  0.12891920  0.69449089     0.09900
Br2157     Br  0.41188621  0.08797869  0.75872128    -0.05600
Br2158     Br  0.36963188  0.17505266  0.79079441    -0.02600
Br2159     Br  0.42472162  0.10088091  0.68286355     0.00300
Br2160     Br  0.34458886  0.13058102  0.73809719    -0.04100
C2161       C  0.07075079  0.03972515  0.60501984    -0.11500
C2162       C  0.08763832  0.03808114  0.61864689     0.04000
C2163       C  0.10214416  0.05396602  0.61973049    -0.12000
C2164       C  0.10010718  0.07171710  0.60754494     0.18800
C2165       C  0.08334668  0.07339498  0.59384719    -0.09100
C2166       C  0.06891306  0.05737150  0.59253516    -0.02100
H2167       H  0.11512368  0.05247936  0.63014753     0.05400
C2168       C  0.11585076  0.08809531  0.60939598     0.20800
H2169       H  0.05588349  0.05897716  0.58220033     0.10500
C2170       C  0.13110807  0.08997094  0.59418696    -0.15400
C2171       C  0.14740894  0.10392785  0.59654512     0.03500
C2172       C  0.14863962  0.11621246  0.61443281    -0.10700
C2173       C  0.13292374  0.11481310  0.62926088    -0.00800
C2174       C  0.11666177  0.10087063  0.62688473    -0.05900
H2175       H  0.13050448  0.08029868  0.58060979     0.06500
H2176       H  0.13355613  0.12428448  0.64297896     0.09900
Br2177     Br  0.07908787  0.09768166  0.57747604    -0.05600
Br2178     Br  0.09225389  0.01410125  0.63544172    -0.02600
Br2179     Br  0.16717874  0.10607519  0.57464321     0.00300
Br2180     Br  0.09590638  0.09971020  0.64791761    -0.04100
C2181       C  0.15695388  0.29281010  0.65293244    -0.11500
C2182       C  0.14566683  0.27690376  0.66261788     0.04000
C2183       C  0.14953007  0.25630490  0.65749587    -0.12000
C2184       C  0.16436414  0.25115456  0.64264224     0.18800
C2185       C  0.17504358  0.26700417  0.63236136    -0.09100
C2186       C  0.17133575  0.28761474  0.63758008    -0.02100
H2187       H  0.14093936  0.24420157  0.66516146     0.05400
C2188       C  0.16857714  0.22914894  0.63831476     0.20800
H2189       H  0.18013218  0.29961623  0.62999368     0.10500
C2190       C  0.16208128  0.22055180  0.61959461    -0.15400
C2191       C  0.16551386  0.19967347  0.61527719     0.03500
C2192       C  0.17533089  0.18695538  0.62999885    -0.10700
C2193       C  0.18208020  0.19569443  0.64860261    -0.00800
C2194       C  0.17882147  0.21659790  0.65280476    -0.05900
H2195       H  0.15442780  0.23017050  0.60825658     0.06500
H2196       H  0.18987070  0.18618593  0.65994430     0.09900
Br2197     Br  0.19545955  0.26119826  0.61177184    -0.05600
Br2198     Br  0.12416020  0.28237238  0.68221540    -0.02600
Br2199     Br  0.15769776  0.18968779  0.58857074     0.00300
Br2200     Br  0.18920779  0.22751051  0.67823471    -0.04100
C2201       C  0.22434608  0.12777638  0.62538299    -0.11500
C2202       C  0.23600298  0.12908376  0.64367706     0.04000
C2203       C  0.25698979  0.12401963  0.64347173    -0.12000
C2204       C  0.26663161  0.11756889  0.62523503     0.18800
C2205       C  0.25476161  0.11514779  0.60724112    -0.09100
C2206       C  0.23375066  0.12023756  0.60741430    -0.02100
H2207       H  0.26595306  0.12561616  0.65746626     0.05400
C2208       C  0.28926940  0.11468873  0.62519900     0.20800
H2209       H  0.22489701  0.11899605  0.59331580     0.10500
C2210       C  0.29786143  0.09704947  0.63434338    -0.15400
C2211       C  0.31925235  0.09519307  0.63686646     0.03500
C2212       C  0.33237106  0.11131692  0.63042797    -0.10700
C2213       C  0.32375906  0.12844522  0.62028703    -0.00800
C2214       C  0.30240944  0.13025386  0.61771478    -0.05900
H2215       H  0.28785870  0.08492270  0.63996627     0.06500
H2216       H  0.33357281  0.14104920  0.61542629     0.09900
Br2217     Br  0.26676739  0.10539282  0.58207644    -0.05600
Br2218     Br  0.22389360  0.13749284  0.66932300    -0.02600
Br2219     Br  0.32979166  0.07038368  0.64915858     0.00300
Br2220     Br  0.29177551  0.15501817  0.60539809    -0.04100
C2221       C  0.15469607  0.37123062  0.88976967    -0.11500
C2222       C  0.14047053  0.38771729  0.89016444     0.04000
C2223       C  0.12584367  0.38891898  0.90597146    -0.12000
C2224       C  0.12534128  0.37411091  0.92174207     0.18800
C2225       C  0.13990604  0.35797640  0.92169823    -0.09100
C2226       C  0.15439126  0.35661925  0.90577593    -0.02100
H2227       H  0.11483048  0.40150705  0.90601404     0.05400
C2228       C  0.10914205  0.37542374  0.93774614     0.20800
H2229       H  0.16542637  0.34404836  0.90583614     0.10500
C2230       C  0.09336972  0.36067989  0.93794352    -0.15400
C2231       C  0.07751195  0.36156602  0.95253608     0.03500
C2232       C  0.07730754  0.37747657  0.96741234    -0.10700
C2233       C  0.09301359  0.39238451  0.96697615    -0.00800
C2234       C  0.10885503  0.39143799  0.95235399    -0.05900
H2235       H  0.09327402  0.34854775  0.92647998     0.06500
H2236       H  0.09316549  0.40466860  0.97826944     0.09900
Br2237     Br  0.14098759  0.33786334  0.94339800    -0.05600
Br2238     Br  0.14114953  0.40966891  0.87029151    -0.02600
Br2239     Br  0.05595325  0.34141818  0.95028389     0.00300
Br2240     Br  0.13011870  0.41194342  0.95333434    -0.04100
C2241       C  0.33606598  0.35074959  0.87715074    -0.11500
C2242       C  0.32534008  0.34887999  0.85837608     0.04000
C2243       C  0.30416674  0.35277538  0.85768620    -0.12000
C2244       C  0.29343221  0.35848977  0.87552643     0.18800
C2245       C  0.30415268  0.36065740  0.89424822    -0.09100
C2246       C  0.32541772  0.35689723  0.89493666    -0.02100
H2247       H  0.29597898  0.35115871  0.84322229     0.05400
C2248       C  0.27093591  0.36143817  0.87420939     0.20800
H2249       H  0.33358786  0.35837697  0.90942116     0.10500
C2250       C  0.25793560  0.34483093  0.87888307    -0.15400
C2251       C  0.23665698  0.34635752  0.87571139     0.03500
C2252       C  0.22819352  0.36471785  0.86773988    -0.10700
C2253       C  0.24116033  0.38146758  0.86344610    -0.00800
C2254       C  0.26243348  0.37995346  0.86669456    -0.05900
H2255       H  0.26444686  0.33046172  0.88444786     0.06500
H2256       H  0.23473407  0.39562433  0.85727071     0.09900
Br2257     Br  0.29027662  0.36854056  0.91911143    -0.05600
Br2258     Br  0.33903036  0.34133882  0.83325504    -0.02600
Br2259     Br  0.21991866  0.32260385  0.88116537     0.00300
Br2260     Br  0.27940178  0.40330992  0.86036951    -0.04100
C2261       C  0.17280724  0.36486800  0.81480092    -0.11500
C2262       C  0.17955563  0.37942531  0.80012048     0.04000
C2263       C  0.17553064  0.37627854  0.77917817    -0.12000
C2264       C  0.16464773  0.35885014  0.77256242     0.18800
C2265       C  0.15728714  0.34464865  0.78725673    -0.09100
C2266       C  0.16131650  0.34777879  0.80822216    -0.02100
H2267       H  0.18112401  0.38733503  0.76796934     0.05400
C2268       C  0.16230229  0.35509592  0.75022423     0.20800
H2269       H  0.15613723  0.33644337  0.81935200     0.10500
C2270       C  0.17926465  0.34759882  0.73910666    -0.15400
C2271       C  0.17760005  0.34331746  0.71805647     0.03500
C2272       C  0.15873089  0.34664976  0.70778365    -0.10700
C2273       C  0.14190767  0.35468417  0.71879218    -0.00800
C2274       C  0.14356531  0.35886479  0.73990338    -0.05900
H2275       H  0.19380738  0.34490610  0.74689826     0.06500
H2276       H  0.12735597  0.35735348  0.71101590     0.09900
Br2277     Br  0.14270146  0.32022767  0.77925770    -0.05600
Br2278     Br  0.19401698  0.40398675  0.80797239    -0.02600
Br2279     Br  0.20164193  0.33345728  0.70387456     0.00300
Br2280     Br  0.11996941  0.36970485  0.75406309    -0.04100
C2281       C  0.65394716  0.12428856  0.62704686    -0.11500
C2282       C  0.63747344  0.13849948  0.62554747     0.04000
C2283       C  0.62355473  0.13720912  0.60911353    -0.12000
C2284       C  0.62595034  0.12226512  0.59369858     0.18800
C2285       C  0.64293691  0.10871558  0.59461904    -0.09100
C2286       C  0.65657138  0.10962040  0.61132830    -0.02100
H2287       H  0.61092094  0.14813679  0.60817935     0.05400
C2288       C  0.61096654  0.12174779  0.57644844     0.20800
H2289       H  0.66939761  0.09890233  0.61196755     0.10500
C2290       C  0.61027226  0.13833926  0.56259408    -0.15400
C2291       C  0.59580170  0.13894538  0.54656867     0.03500
C2292       C  0.58147701  0.12266078  0.54421753    -0.10700
C2293       C  0.58238646  0.10596323  0.55808815    -0.00800
C2294       C  0.59680355  0.10548456  0.57415934    -0.05900
H2295       H  0.62113025  0.15091352  0.56425531     0.06500
H2296       H  0.57147745  0.09339904  0.55676562     0.09900
Br2297     Br  0.64882123  0.08957107  0.57287953    -0.05600
Br2298     Br  0.63419780  0.16108454  0.64437962    -0.02600
Br2299     Br  0.59725674  0.16205549  0.52807862     0.00300
Br2300     Br  0.59580908  0.08285625  0.59324333    -0.04100
C2301       C  0.92247668  0.37464966  0.63091697    -0.11500
C2302       C  0.90741934  0.38907355  0.62473595     0.04000
C2303       C  0.91187317  0.40323805  0.60915617    -0.12000
C2304       C  0.93112005  0.40313913  0.59931506     0.18800
C2305       C  0.94625839  0.38881224  0.60556091    -0.09100
C2306       C  0.94181735  0.37461546  0.62123164    -0.02100
H2307       H  0.90014732  0.41420046  0.60444337     0.05400
C2308       C  0.93479281  0.41798804  0.58241720     0.20800
H2309       H  0.95342057  0.36347988  0.62582396     0.10500
C2310       C  0.94878447  0.43419360  0.58532741    -0.15400
C2311       C  0.95138199  0.44939543  0.57021039     0.03500
C2312       C  0.93980151  0.44846994  0.55182288    -0.10700
C2313       C  0.92591037  0.43217007  0.54891677    -0.00800
C2314       C  0.92340551  0.41695989  0.56396581    -0.05900
H2315       H  0.95728922  0.43531368  0.59965566     0.06500
H2316       H  0.91696628  0.43124648  0.53483962     0.09900
Br2317     Br  0.97282709  0.38756843  0.59262857    -0.05600
Br2318     Br  0.88013971  0.38926805  0.63624352    -0.02600
Br2319     Br  0.96948013  0.47196737  0.57632655     0.00300
Br2320     Br  0.90439985  0.39496642  0.55852692    -0.04100
C2321       C  0.65763420  0.37241402  0.87737052    -0.11500
C2322       C  0.64371893  0.37227706  0.86060265     0.04000
C2323       C  0.62797803  0.38715109  0.85943501    -0.12000
C2324       C  0.62590835  0.40240194  0.87465155     0.18800
C2325       C  0.63990322  0.40262788  0.89124241    -0.09100
C2326       C  0.65549206  0.38775393  0.89249694    -0.02100
H2327       H  0.61736110  0.38689593  0.84654689     0.05400
C2328       C  0.60888738  0.41772949  0.87337263     0.20800
H2329       H  0.66607433  0.38818834  0.90541447     0.10500
C2330       C  0.59296957  0.41697271  0.88798128    -0.15400
C2331       C  0.57723834  0.43180377  0.88813772     0.03500
C2332       C  0.57712839  0.44783523  0.87334388    -0.10700
C2333       C  0.59273439  0.44816215  0.85828105    -0.00800
C2334       C  0.60859361  0.43339221  0.85829685    -0.05900
H2335       H  0.59289467  0.40482446  0.89946370     0.06500
H2336       H  0.59296339  0.46032366  0.84682038     0.09900
Br2337     Br  0.63881588  0.42340440  0.91224036    -0.05600
Br2338     Br  0.64621398  0.35308672  0.83825522    -0.02600
Br2339     Br  0.55588208  0.42865777  0.90839111     0.00300
Br2340     Br  0.63014889  0.43591011  0.83820277    -0.04100
C2341       C  0.91391779  0.37974043  0.88515373    -0.11500
C2342       C  0.91565781  0.39669148  0.89860440     0.04000
C2343       C  0.93067388  0.39660062  0.91410603    -0.12000
C2344       C  0.94407256  0.37975787  0.91651717     0.18800
C2345       C  0.94244879  0.36287281  0.90299566    -0.09100
C2346       C  0.92752917  0.36302043  0.88737774    -0.02100
H2347       H  0.93187436  0.40968780  0.92438358     0.05400
C2348       C  0.95947140  0.38004517  0.93336431     0.20800
H2349       H  0.92630722  0.34989829  0.87714724     0.10500
C2350       C  0.95635582  0.36767418  0.95083852    -0.15400
C2351       C  0.97042493  0.36787482  0.96722461     0.03500
C2352       C  0.98802078  0.38062553  0.96624404    -0.10700
C2353       C  0.99092728  0.39321887  0.94885230    -0.00800
C2354       C  0.97688542  0.39293772  0.93246252    -0.05900
H2355       H  0.94278942  0.35799537  0.95181184     0.06500
H2356       H  0.00439106  0.40303515  0.94782721     0.09900
Br2357     Br  0.96041282  0.33943469  0.90518570    -0.05600
Br2358     Br  0.89831407  0.42056568  0.89600217    -0.02600
Br2359     Br  0.96406648  0.35155247  0.99109869     0.00300
Br2360     Br  0.98241238  0.40990348  0.90886006    -0.04100
C2361       C  0.89225849  0.37540146  0.81110103    -0.11500
C2362       C  0.88798450  0.39163736  0.79727995     0.04000
C2363       C  0.89110764  0.38885689  0.77610469    -0.12000
C2364       C  0.89828651  0.36993948  0.76843736     0.18800
C2365       C  0.90291504  0.35384998  0.78232757    -0.09100
C2366       C  0.89997100  0.35670599  0.80348716    -0.02100
H2367       H  0.88766096  0.40136505  0.76555663     0.05400
C2368       C  0.90049535  0.36696033  0.74593859     0.20800
H2369       H  0.90305378  0.34406315  0.81398900     0.10500
C2370       C  0.92029193  0.36518407  0.73739800    -0.15400
C2371       C  0.92289160  0.36063942  0.71649200     0.03500
C2372       C  0.90550238  0.35766561  0.70383923    -0.10700
C2373       C  0.88571059  0.35995754  0.71222324    -0.00800
C2374       C  0.88310524  0.36476475  0.73308940    -0.05900
H2375       H  0.93374769  0.36691716  0.74714288     0.06500
H2376       H  0.87227057  0.35778302  0.70254744     0.09900
Br2377     Br  0.91208776  0.32730509  0.77300673    -0.05600
Br2378     Br  0.87790739  0.41780096  0.80669750    -0.02600
Br2379     Br  0.95043539  0.35764353  0.70609174     0.00300
Br2380     Br  0.85554412  0.36733979  0.74352311    -0.04100
C2381       C  0.83949610  0.37389471  0.86657567    -0.11500
C2382       C  0.82941071  0.35480816  0.86442941     0.04000
C2383       C  0.80856876  0.35306204  0.86959997    -0.12000
C2384       C  0.79747973  0.37018811  0.87674281     0.18800
C2385       C  0.80760289  0.38920474  0.87921580    -0.09100
C2386       C  0.82855851  0.39091861  0.87425123    -0.02100
H2387       H  0.80085305  0.33839116  0.86765084     0.05400
C2388       C  0.77512424  0.36795757  0.88034105     0.20800
H2389       H  0.83622601  0.40564308  0.87594806     0.10500
C2390       C  0.76810908  0.35880783  0.89863663    -0.15400
C2391       C  0.74717249  0.35420780  0.90130306     0.03500
C2392       C  0.73299834  0.35864691  0.88539331    -0.10700
C2393       C  0.73999077  0.36862440  0.86749654    -0.00800
C2394       C  0.76086524  0.37320210  0.86485444    -0.05900
H2395       H  0.77901788  0.35483193  0.91065932     0.06500
H2396       H  0.72931233  0.37197658  0.85508156     0.09900
Br2397     Br  0.79325117  0.41318850  0.88887157    -0.05600
Br2398     Br  0.84350917  0.33071952  0.85456796    -0.02600
Br2399     Br  0.73867151  0.34206738  0.92691043     0.00300
Br2400     Br  0.76944147  0.38534641  0.83927549    -0.04100
C2401       C  0.98251604  0.04327337  0.60293892    -0.11500
C2402       C  0.98743692  0.06223009  0.61227586     0.04000
C2403       C  0.97252414  0.07777364  0.61358617    -0.12000
C2404       C  0.95258999  0.07464830  0.60584223     0.18800
C2405       C  0.94779018  0.05588502  0.59607548    -0.09100
C2406       C  0.96280702  0.04040318  0.59451416    -0.02100
H2407       H  0.97634561  0.09220819  0.62103015     0.05400
C2408       C  0.93672032  0.09065496  0.60923143     0.20800
H2409       H  0.95885529  0.02581821  0.58743839     0.10500
C2410       C  0.93063718  0.10354828  0.59291172    -0.15400
C2411       C  0.91561872  0.11883839  0.59591088     0.03500
C2412       C  0.90642104  0.12119403  0.61542909    -0.10700
C2413       C  0.91254524  0.10826930  0.63167981    -0.00800
C2414       C  0.92763665  0.09317736  0.62875561    -0.05900
H2415       H  0.93756865  0.10167529  0.57784151     0.06500
H2416       H  0.90559853  0.11001948  0.64676568     0.09900
Br2417     Br  0.92059241  0.05032615  0.58589304    -0.05600
Br2418     Br  0.01444028  0.06771670  0.62308139    -0.02600
Br2419     Br  0.90761920  0.13558831  0.57286933     0.00300
Br2420     Br  0.93511561  0.07612661  0.65178870    -0.04100
C2421       C  0.90456700  0.30197342  0.65048146    -0.11500
C2422       C  0.89601231  0.29571201  0.63137599     0.04000
C2423       C  0.89364464  0.27470058  0.62702999    -0.12000
C2424       C  0.89799764  0.25953269  0.64187815     0.18800
C2425       C  0.90580576  0.26576878  0.66117814    -0.09100
C2426       C  0.90959513  0.28661735  0.66501144    -0.02100
H2427       H  0.88762479  0.27019225  0.61212440     0.05400
C2428       C  0.89401412  0.23743294  0.63710057     0.20800
H2429       H  0.91619859  0.29081786  0.67974740     0.10500
C2430       C  0.90976864  0.22283131  0.64000954    -0.15400
C2431       C  0.90611360  0.20169722  0.63757582     0.03500
C2432       C  0.88674906  0.19479394  0.63017135    -0.10700
C2433       C  0.87142823  0.20968439  0.62604951    -0.00800
C2434       C  0.87458668  0.23058230  0.63017901    -0.05900
H2435       H  0.92481709  0.22784137  0.64523684     0.06500
H2436       H  0.85649045  0.20502077  0.62025314     0.09900
Br2437     Br  0.91008364  0.24684799  0.68360662    -0.05600
Br2438     Br  0.88495464  0.31460800  0.61133467    -0.02600
Br2439     Br  0.92745274  0.18353801  0.64736290     0.00300
Br2440     Br  0.85107788  0.24854992  0.62803340    -0.04100
C2441       C  0.83454288  0.13849125  0.63643179    -0.11500
C2442       C  0.82541354  0.14176332  0.65586967     0.04000
C2443       C  0.80436540  0.13795847  0.65862754    -0.12000
C2444       C  0.79223543  0.13076942  0.64226913     0.18800
C2445       C  0.80151848  0.12655763  0.62314598    -0.09100
C2446       C  0.82255774  0.13039307  0.62034910    -0.02100
H2447       H  0.79733904  0.14097140  0.67346618     0.05400
C2448       C  0.76974176  0.12895598  0.64515380     0.20800
H2449       H  0.82943683  0.12770646  0.60537892     0.10500
C2450       C  0.75697931  0.14506106  0.63834502    -0.15400
C2451       C  0.73568426  0.14444886  0.64171077     0.03500
C2452       C  0.72688957  0.12749364  0.65207856    -0.10700
C2453       C  0.73969415  0.11132989  0.65879695    -0.00800
C2454       C  0.76098996  0.11192388  0.65531267    -0.05900
H2455       H  0.76367930  0.15830517  0.63068184     0.06500
H2456       H  0.73307669  0.09819564  0.66671402     0.09900
Br2457     Br  0.78592973  0.11589462  0.60043306    -0.05600
Br2458     Br  0.84110295  0.15103711  0.67914935    -0.02600
Br2459     Br  0.71948737  0.16766760  0.63295133     0.00300
Br2460     Br  0.77756999  0.08913496  0.66438804    -0.04100
C2461       C  0.66282718  0.11693335  0.88437858    -0.11500
C2462       C  0.64895280  0.11717032  0.90110481     0.04000
C2463       C  0.64956090  0.10134564  0.91576482    -0.12000
C2464       C  0.66389151  0.08523349  0.91407579     0.18800
C2465       C  0.67778360  0.08497538  0.89743164    -0.09100
C2466       C  0.67711451  0.10072356  0.88267625    -0.02100
H2467       H  0.63874087  0.10152915  0.92848770     0.05400
C2468       C  0.66393679  0.06880014  0.92982132     0.20800
H2469       H  0.68779504  0.10035416  0.86983246     0.10500
C2470       C  0.65053865  0.05201836  0.92762651    -0.15400
C2471       C  0.64946654  0.03670485  0.94281644     0.03500
C2472       C  0.66173865  0.03829075  0.96071667    -0.10700
C2473       C  0.67561943  0.05479494  0.96252107    -0.00800
C2474       C  0.67674710  0.07000930  0.94725505    -0.05900
H2475       H  0.64092605  0.05082776  0.91402352     0.06500
H2476       H  0.68530837  0.05610421  0.97605651     0.09900
Br2477     Br  0.69778623  0.06338906  0.89430322    -0.05600
Br2478     Br  0.62819903  0.13811024  0.90401510    -0.02600
Br2479     Br  0.63206321  0.01335047  0.93765405     0.00300
Br2480     Br  0.69572182  0.09236232  0.95089453    -0.04100
C2481       C  0.68471139  0.29903028  0.88209408    -0.11500
C2482       C  0.66676909  0.28885313  0.88923327     0.04000
C2483       C  0.66421191  0.26767837  0.88568424    -0.12000
C2484       C  0.68007174  0.25563861  0.87707017     0.18800
C2485       C  0.69873117  0.26547332  0.87171363    -0.09100
C2486       C  0.70049317  0.28687702  0.87335192    -0.02100
H2487       H  0.64975569  0.26055711  0.88995918     0.05400
C2488       C  0.67652706  0.23328156  0.87272750     0.20800
H2489       H  0.71452143  0.29393585  0.86776256     0.10500
C2490       C  0.68152958  0.22549972  0.85317396    -0.15400
C2491       C  0.67924025  0.20462188  0.84841879     0.03500
C2492       C  0.66932195  0.19119279  0.86254475    -0.10700
C2493       C  0.66386264  0.19912956  0.88199871    -0.00800
C2494       C  0.66805494  0.21960281  0.88742896    -0.05900
H2495       H  0.68794145  0.23566648  0.84156925     0.06500
H2496       H  0.65645393  0.18929609  0.89332720     0.09900
Br2497     Br  0.72298252  0.25057554  0.86328976    -0.05600
Br2498     Br  0.64610283  0.30209324  0.90582447    -0.02600
Br2499     Br  0.69250379  0.19552341  0.82349404     0.00300
Br2500     Br  0.66323300  0.22735336  0.91558055    -0.04100
C2501       C  0.65511733  0.13642595  0.81035487    -0.11500
C2502       C  0.67066976  0.12429843  0.80108203     0.04000
C2503       C  0.67065090  0.12134114  0.77977367    -0.12000
C2504       C  0.65554662  0.13049260  0.76733591     0.18800
C2505       C  0.63949463  0.14183310  0.77656829    -0.09100
C2506       C  0.63939651  0.14476467  0.79795292    -0.02100
H2507       H  0.68318892  0.11280368  0.77270538     0.05400
C2508       C  0.65852826  0.13008751  0.74478422     0.20800
H2509       H  0.62737829  0.15411213  0.80486466     0.10500
C2510       C  0.65431427  0.11201707  0.73371578    -0.15400
C2511       C  0.65956163  0.11045759  0.71281874     0.03500
C2512       C  0.66924181  0.12713913  0.70280442    -0.10700
C2513       C  0.67319363  0.14527151  0.71386453    -0.00800
C2514       C  0.66796570  0.14682746  0.73469126    -0.05900
H2515       H  0.64750606  0.09890722  0.74151147     0.06500
H2516       H  0.68077227  0.15812192  0.70634630     0.09900
Br2517     Br  0.61800822  0.15423023  0.76042818    -0.05600
Br2518     Br  0.69371915  0.11342484  0.81624275    -0.02600
Br2519     Br  0.65475948  0.08476252  0.69905619     0.00300
Br2520     Br  0.67525606  0.17158829  0.74912324    -0.04100
loop_ 
_geom_bond_atom_site_label_1 
_geom_bond_atom_site_label_2 
_geom_bond_distance 
_geom_bond_site_symmetry_2 
_ccdc_geom_bond_type 
C1            C2   1.401       .  A
C1            C6   1.404       .  A
C1         C2461   1.478       .  S
C2            C3   1.400       .  A
C2            H7   1.083       .  S
C3            C4   1.402       .  A
C3         C2501   1.481       .  S
C4            C5   1.407       .  A
C4            H8   1.086       .  S
C5            C6   1.411       .  A
C5         C2492   1.499       .  S
C6            H9   1.084       .  S
C10          C11   1.405       .  A
C10          C15   1.401       .  A
C10        C2412   1.476       .  S
C11          C12   1.409       .  A
C11          H16   1.081       .  S
C12          C13   1.409       .  A
C12        C2432   1.497       .  S
C13          C14   1.401       .  A
C13          H17   1.083       .  S
C14          C15   1.398       .  A
C14        C2441   1.478       .  S
C15          H18   1.084       .  S
C19          C20   1.405       .  A
C19          C24   1.406       .  A
C19        C2341   1.480       .  S
C20          C21   1.401       .  A
C20          H25   1.084       .  S
C21          C22   1.401       .  A
C21        C2381   1.475       .  S
C22          C23   1.401       .  A
C22          H26   1.085       .  S
C23          C24   1.404       .  A
C23        C2361   1.476       .  S
C24          H27   1.084       .  S
C28          C29   1.409       .  A
C28          C33   1.404       .  A
C28        C2321   1.489       .  S
C29          C30   1.413       .  A
C29          H34   1.080       .  S
C30          C31   1.409       .  A
C30        C2481   1.502       .  S
C31          C32   1.401       .  A
C31          H35   1.083       .  S
C32          C33   1.400       .  A
C32        C2392   1.481       .  S
C33          H36   1.084       .  S
C37          C38   1.403       .  A
C37          C42   1.400       .  A
C37        C2301   1.474       .  S
C38          C39   1.408       .  A
C38          H43   1.082       .  S
C39          C40   1.411       .  A
C39        C2421   1.497       .  S
C40          C41   1.402       .  A
C40          H44   1.083       .  S
C41          C42   1.398       .  A
C41        C2372   1.475       .  S
C42          H45   1.084       .  S
C46          C47   1.406       .  A
C46          C51   1.407       .  A
C46        C2281   1.486       .  S
C47          C48   1.403       .  A
C47          H52   1.084       .  S
C48          C49   1.401       .  A
C48        C2452   1.478       .  S
C49          C50   1.402       .  A
C49          H53   1.084       .  S
C50          C51   1.403       .  A
C50        C2512   1.478       .  S
C51          H54   1.084       .  S
C55          C56   1.408       .  A
C55          C60   1.404       .  A
C55        C2221   1.481       .  S
C56          C57   1.404       .  A
C56          H61   1.084       .  S
C57          C58   1.402       .  A
C57        C2261   1.480       .  S
C58          C59   1.399       .  A
C58          H62   1.085       .  S
C59          C60   1.400       .  A
C59        C2252   1.472       .  S
C60          H63   1.084       .  S
C64          C65   1.405       .  A
C64          C69   1.407       .  A
C64        C2172   1.483       .  S
C65          C66   1.404       .  A
C65          H70   1.084       .  S
C66          C67   1.402       .  A
C66        C2192   1.483       .  S
C67          C68   1.403       .  A
C67          H71   1.084       .  S
C68          C69   1.404       .  A
C68        C2201   1.480       .  S
C69          H72   1.084       .  S
C73          C74   1.408       .  A
C73          C78   1.401       .  A
C73        C2101   1.484       .  S
C74          C75   1.412       .  A
C74          H79   1.083       .  S
C75          C76   1.407       .  A
C75        C2141   1.496       .  S
C76          C77   1.398       .  A
C76          H80   1.082       .  S
C77          C78   1.398       .  A
C77        C2121   1.475       .  S
C78          H81   1.084       .  S
C82          C83   1.404       .  A
C82          C87   1.404       .  A
C82        C2081   1.475       .  S
C83          C84   1.400       .  A
C83          H88   1.084       .  S
C84          C85   1.400       .  A
C84        C2241   1.473       .  S
C85          C86   1.400       .  A
C85          H89   1.085       .  S
C86          C87   1.402       .  A
C86        C2132   1.473       .  S
C87          H90   1.084       .  S
C91          C92   1.405       .  A
C91          C96   1.403       .  A
C91        C2061   1.480       .  S
C92          C93   1.409       .  A
C92          H97   1.080       .  S
C93          C94   1.410       .  A
C93        C2152   1.504       .  S
C94          C95   1.402       .  A
C94          H98   1.081       .  S
C95          C96   1.402       .  A
C95        C2212   1.485       .  S
C96          H99   1.084       .  S
C100        C101   1.406       .  A
C100        C105   1.406       .  A
C100       C2041   1.484       .  S
C101        C102   1.405       .  A
C101        H106   1.084       .  S
C102        C103   1.403       .  A
C102       C2181   1.485       .  S
C103        C104   1.402       .  A
C103        H107   1.084       .  S
C104        C105   1.402       .  A
C104       C2272   1.478       .  S
C105        H108   1.084       .  S
C109        C110   1.408       .  A
C109        C114   1.406       .  A
C109       C1981   1.488       .  S
C110        C111   1.406       .  A
C110        H115   1.083       .  S
C111        C112   1.405       .  A
C111       C2001   1.486       .  S
C112        C113   1.404       .  A
C112        H116   1.084       .  S
C113        C114   1.402       .  A
C113       C2032   1.482       .  S
C114        H117   1.084       .  S
C118        C119   1.406       .  A
C118        C123   1.408       .  A
C118       C1921   1.483       .  S
C119        C120   1.404       .  A
C119        H124   1.084       .  S
C120        C121   1.401       .  A
C120       C1961   1.480       .  S
C121        C122   1.403       .  A
C121        H125   1.084       .  S
C122        C123   1.407       .  A
C122       C1952   1.484       .  S
C123        H126   1.084       .  S
C127        C128   1.403       .  A
C127        C132   1.405       .  A
C127       C1861   1.478       .  S
C128        C129   1.398       .  A
C128        H133   1.084       .  S
C129        C130   1.401       .  A
C129       C1901   1.473       .  S
C130        C131   1.406       .  A
C130        H134   1.084       .  S
C131        C132   1.407       .  A
C131       C1892   1.487       .  S
C132        H135   1.084       .  S
C136        C137   1.408       .  A
C136        C141   1.409       .  A
C136       C1841   1.487       .  S
C137        C138   1.405       .  A
C137        H142   1.083       .  S
C138        C139   1.402       .  A
C138       C1881   1.487       .  S
C139        C140   1.403       .  A
C139        H143   1.084       .  S
C140        C141   1.408       .  A
C140       C2012   1.489       .  S
C141        H144   1.084       .  S
C145        C146   1.404       .  A
C145        C150   1.407       .  A
C145       C1821   1.480       .  S
C146        C147   1.400       .  A
C146        H151   1.084       .  S
C147        C148   1.402       .  A
C147       C1912   1.475       .  S
C148        C149   1.404       .  A
C148        H152   1.084       .  S
C149        C150   1.406       .  A
C149       C1972   1.481       .  S
C150        H153   1.084       .  S
C154        C155   1.409       .  A
C154        C159   1.406       .  A
C154       C1801   1.487       .  S
C155        C156   1.407       .  A
C155        H160   1.083       .  S
C156        C157   1.404       .  A
C156       C1941   1.488       .  S
C157        C158   1.401       .  A
C157        H161   1.084       .  S
C158        C159   1.401       .  A
C158       C2021   1.478       .  S
C159        H162   1.084       .  S
C163        C164   1.406       .  A
C163        C168   1.404       .  A
C163       C1741   1.483       .  S
C164        C165   1.409       .  A
C164        H169   1.081       .  S
C165        C166   1.409       .  A
C165       C1781   1.499       .  S
C166        C167   1.402       .  A
C166        H170   1.082       .  S
C167        C168   1.402       .  A
C167       C1761   1.484       .  S
C168        H171   1.084       .  S
C172        C173   1.406       .  A
C172        C177   1.405       .  A
C172       C1681   1.479       .  S
C173        C174   1.403       .  A
C173        H178   1.084       .  S
C174        C175   1.399       .  A
C174       C1732   1.476       .  S
C175        C176   1.401       .  A
C175        H179   1.085       .  S
C176        C177   1.404       .  A
C176       C1701   1.479       .  S
C177        H180   1.084       .  S
C181        C182   1.407       .  A
C181        C186   1.406       .  A
C181       C1621   1.484       .  S
C182        C183   1.403       .  A
C182        H187   1.084       .  S
C183        C184   1.401       .  A
C183       C1661   1.474       .  S
C184        C185   1.399       .  A
C184        H188   1.085       .  S
C185        C186   1.402       .  A
C185       C1641   1.473       .  S
C186        H189   1.084       .  S
C190        C191   1.406       .  A
C190        C195   1.405       .  A
C190       C1601   1.481       .  S
C191        C192   1.405       .  A
C191        H196   1.084       .  S
C192        C193   1.402       .  A
C192       C1772   1.482       .  S
C193        C194   1.401       .  A
C193        H197   1.084       .  S
C194        C195   1.402       .  A
C194       C1672   1.475       .  S
C195        H198   1.084       .  S
C199        C200   1.407       .  A
C199        C204   1.405       .  A
C199       C1581   1.484       .  S
C200        C201   1.404       .  A
C200        H205   1.084       .  S
C201        C202   1.402       .  A
C201       C1721   1.477       .  S
C202        C203   1.401       .  A
C202        H206   1.084       .  S
C203        C204   1.402       .  A
C203       C1652   1.475       .  S
C204        H207   1.084       .  S
C208        C209   1.406       .  A
C208        C213   1.402       .  A
C208       C1561   1.483       .  S
C209        C210   1.409       .  A
C209        H214   1.080       .  S
C210        C211   1.409       .  A
C210       C1792   1.499       .  S
C211        C212   1.401       .  A
C211        H215   1.083       .  S
C212        C213   1.399       .  A
C212       C1712   1.478       .  S
C213        H216   1.084       .  S
C217        C218   1.410       .  A
C217        C222   1.406       .  A
C217       C1501   1.490       .  S
C218        C219   1.410       .  A
C218        H223   1.081       .  S
C219        C220   1.409       .  A
C219       C1541   1.501       .  S
C220        C221   1.400       .  A
C220        H224   1.083       .  S
C221        C222   1.401       .  A
C221       C1521   1.481       .  S
C222        H225   1.083       .  S
C226        C227   1.405       .  A
C226        C231   1.404       .  A
C226       C1441   1.481       .  S
C227        C228   1.404       .  A
C227        H232   1.083       .  S
C228        C229   1.404       .  A
C228       C1461   1.481       .  S
C229        C230   1.403       .  A
C229        H233   1.084       .  S
C230        C231   1.404       .  A
C230       C1492   1.480       .  S
C231        H234   1.084       .  S
C235        C236   1.406       .  A
C235        C240   1.408       .  A
C235       C1392   1.486       .  S
C236        C237   1.402       .  A
C236        H241   1.084       .  S
C237        C238   1.402       .  A
C237       C1421   1.479       .  S
C238        C239   1.401       .  A
C238        H242   1.084       .  S
C239        C240   1.405       .  A
C239       C1412   1.481       .  S
C240        H243   1.084       .  S
C244        C245   1.406       .  A
C244        C249   1.409       .  A
C244       C1361   1.488       .  S
C245        C246   1.404       .  A
C245        H250   1.084       .  S
C246        C247   1.403       .  A
C246       C1432   1.482       .  S
C247        C248   1.402       .  A
C247        H251   1.084       .  S
C248        C249   1.407       .  A
C248       C1532   1.485       .  S
C249        H252   1.083       .  S
C253        C254   1.408       .  A
C253        C258   1.408       .  A
C253       C1352   1.488       .  S
C254        C255   1.403       .  A
C254        H259   1.084       .  S
C255        C256   1.402       .  A
C255       C1401   1.479       .  S
C256        C257   1.401       .  A
C256        H260   1.085       .  S
C257        C258   1.402       .  A
C257       C1472   1.476       .  S
C258        H261   1.084       .  S
C262        C263   1.401       .  A
C262        C267   1.405       .  A
C262       C1321   1.474       .  S
C263        C264   1.400       .  A
C263        H268   1.084       .  S
C264        C265   1.403       .  A
C264       C1481   1.480       .  S
C265        C266   1.409       .  A
C265        H269   1.083       .  S
C266        C267   1.409       .  A
C266       C1552   1.498       .  S
C267        H270   1.082       .  S
C271        C272   1.405       .  A
C271        C276   1.402       .  A
C271       C1272   1.476       .  S
C272        C273   1.403       .  A
C272        H277   1.084       .  S
C273        C274   1.404       .  A
C273       C1301   1.479       .  S
C274        C275   1.403       .  A
C274        H278   1.084       .  S
C275        C276   1.400       .  A
C275       C1281   1.476       .  S
C276        H279   1.084       .  S
C280        C281   1.402       .  A
C280        C285   1.403       .  A
C280       C1201   1.480       .  S
C281        C282   1.401       .  A
C281        H286   1.084       .  S
C282        C283   1.402       .  A
C282       C1221   1.480       .  S
C283        C284   1.408       .  A
C283        H287   1.083       .  S
C284        C285   1.406       .  A
C284       C1241   1.494       .  S
C285        H288   1.081       .  S
C289        C290   1.408       .  A
C289        C294   1.407       .  A
C289       C1141   1.487       .  S
C290        C291   1.402       .  A
C290        H295   1.084       .  S
C291        C292   1.399       .  A
C291       C1181   1.476       .  S
C292        C293   1.399       .  A
C292        H296   1.084       .  S
C293        C294   1.404       .  A
C293       C1161   1.480       .  S
C294        H297   1.083       .  S
C298        C299   1.405       .  A
C298        C303   1.407       .  A
C298       C1121   1.484       .  S
C299        C300   1.401       .  A
C299        H304   1.084       .  S
C300        C301   1.402       .  A
C300       C1192   1.479       .  S
C301        C302   1.402       .  A
C301        H305   1.084       .  S
C302        C303   1.405       .  A
C302       C1312   1.480       .  S
C303        H306   1.083       .  S
C307        C308   1.404       .  A
C307        C312   1.406       .  A
C307       C1101   1.481       .  S
C308        C309   1.400       .  A
C308        H313   1.084       .  S
C309        C310   1.398       .  A
C309       C1172   1.477       .  S
C310        C311   1.405       .  A
C310        H314   1.084       .  S
C311        C312   1.407       .  A
C311       C1252   1.492       .  S
C312        H315   1.081       .  S
C316        C317   1.406       .  A
C316        C321   1.407       .  A
C316       C1081   1.480       .  S
C317        C318   1.402       .  A
C317        H322   1.084       .  S
C318        C319   1.398       .  A
C318       C1232   1.474       .  S
C319        C320   1.400       .  A
C319        H323   1.084       .  S
C320        C321   1.406       .  A
C320       C1292   1.479       .  S
C321        H324   1.084       .  S
C325        C326   1.406       .  A
C325        C330   1.404       .  A
C325       C1021   1.481       .  S
C326        C327   1.405       .  A
C326        H331   1.084       .  S
C327        C328   1.402       .  A
C327       C1041   1.480       .  S
C328        C329   1.402       .  A
C328        H332   1.084       .  S
C329        C330   1.402       .  A
C329       C1061   1.480       .  S
C330        H333   1.084       .  S
C334        C335   1.407       .  A
C334        C339   1.404       .  A
C334        C972   1.479       .  S
C335        C336   1.405       .  A
C335        H340   1.084       .  S
C336        C337   1.401       .  A
C336       C1001   1.479       .  S
C337        C338   1.401       .  A
C337        H341   1.085       .  S
C338        C339   1.403       .  A
C338        C992   1.478       .  S
C339        H342   1.084       .  S
C343        C344   1.408       .  A
C343        C348   1.400       .  A
C343        C901   1.478       .  S
C344        C345   1.413       .  A
C344        H349   1.081       .  S
C345        C346   1.411       .  A
C345        C941   1.506       .  S
C346        C347   1.401       .  A
C346        H350   1.083       .  S
C347        C348   1.397       .  A
C347        C921   1.476       .  S
C348        H351   1.084       .  S
C352        C353   1.403       .  A
C352        C357   1.411       .  A
C352        C881   1.489       .  S
C353        C354   1.399       .  A
C353        H358   1.083       .  S
C354        C355   1.400       .  A
C354       C1072   1.478       .  S
C355        C356   1.409       .  A
C355        H359   1.083       .  S
C356        C357   1.412       .  A
C356        C952   1.502       .  S
C357        H360   1.081       .  S
C361        C362   1.407       .  A
C361        C366   1.406       .  A
C361        C861   1.483       .  S
C362        C363   1.404       .  A
C362        H367   1.084       .  S
C363        C364   1.401       .  A
C363       C1012   1.479       .  S
C364        C365   1.401       .  A
C364        H368   1.084       .  S
C365        C366   1.404       .  A
C365        C932   1.477       .  S
C366        H369   1.084       .  S
C370        C371   1.406       .  A
C370        C375   1.405       .  A
C370        C841   1.481       .  S
C371        C372   1.403       .  A
C371        H376   1.084       .  S
C372        C373   1.400       .  A
C372       C1052   1.476       .  S
C373        C374   1.402       .  A
C373        H377   1.084       .  S
C374        C375   1.403       .  A
C374        C981   1.478       .  S
C375        H378   1.084       .  S
C379        C380   1.404       .  A
C379        C384   1.406       .  A
C379        C792   1.482       .  S
C380        C381   1.404       .  A
C380        H385   1.084       .  S
C381        C382   1.405       .  A
C381        C801   1.485       .  S
C382        C383   1.404       .  A
C382        H386   1.084       .  S
C383        C384   1.403       .  A
C383        C821   1.484       .  S
C384        H387   1.084       .  S
C388        C389   1.409       .  A
C388        C393   1.408       .  A
C388        C721   1.488       .  S
C389        C390   1.404       .  A
C389        H394   1.084       .  S
C390        C391   1.400       .  A
C390        C761   1.477       .  S
C391        C392   1.402       .  A
C391        H395   1.084       .  S
C392        C393   1.405       .  A
C392        C752   1.483       .  S
C393        H396   1.084       .  S
C397        C398   1.403       .  A
C397        C402   1.406       .  A
C397        C661   1.480       .  S
C398        C399   1.401       .  A
C398        H403   1.084       .  S
C399        C400   1.402       .  A
C399        C681   1.478       .  S
C400        C401   1.403       .  A
C400        H404   1.084       .  S
C401        C402   1.405       .  A
C401        C701   1.480       .  S
C402        H405   1.084       .  S
C406        C407   1.407       .  A
C406        C411   1.409       .  A
C406        C652   1.486       .  S
C407        C408   1.402       .  A
C407        H412   1.084       .  S
C408        C409   1.400       .  A
C408        C692   1.474       .  S
C409        C410   1.400       .  A
C409        H413   1.085       .  S
C410        C411   1.407       .  A
C410        C772   1.479       .  S
C411        H414   1.084       .  S
C415        C416   1.408       .  A
C415        C420   1.407       .  A
C415        C621   1.486       .  S
C416        C417   1.402       .  A
C416        H421   1.084       .  S
C417        C418   1.401       .  A
C417        C712   1.478       .  S
C418        C419   1.403       .  A
C418        H422   1.084       .  S
C419        C420   1.405       .  A
C419        C812   1.484       .  S
C420        H423   1.084       .  S
C424        C425   1.408       .  A
C424        C429   1.410       .  A
C424        C601   1.489       .  S
C425        C426   1.402       .  A
C425        H430   1.084       .  S
C426        C427   1.400       .  A
C426        C741   1.477       .  S
C427        C428   1.403       .  A
C427        H431   1.084       .  S
C428        C429   1.407       .  A
C428        C832   1.486       .  S
C429        H432   1.083       .  S
O433       Cu441   2.007       .  S
O433        C443   1.278       .  A
O434       Cu441   2.012       .  S
O434        C444   1.278       .  A
O435       Cu441   2.012       .  S
O435        C445   1.279       .  A
O436       Cu441   2.013       .  S
O436        C446   1.279       .  A
O437       Cu442   2.018       .  S
O437        C446   1.278       .  A
O438       Cu442   2.017       .  S
O438        C445   1.278       .  A
O439       Cu442   2.015       .  S
O439        C444   1.279       .  A
O440       Cu442   2.007       .  S
O440        C443   1.277       .  A
Cu441      Cu442   2.368       .  S
C443       C1132   1.482       .  S
C444        C612   1.485       .  S
C445        C892   1.485       .  S
C446       C1372   1.488       .  S
O447       Cu455   2.005       .  S
O447        C457   1.277       .  A
O448       Cu455   2.012       .  S
O448        C458   1.279       .  A
O449       Cu455   2.011       .  S
O449        C459   1.279       .  A
O450       Cu455   2.004       .  S
O450        C460   1.278       .  A
O451       Cu456   2.022       .  S
O451        C460   1.279       .  A
O452       Cu456   2.016       .  S
O452        C459   1.278       .  A
O453       Cu456   2.016       .  S
O453        C458   1.278       .  A
O454       Cu456   2.018       .  S
O454        C457   1.278       .  A
Cu455      Cu456   2.370       .  S
C457       C1332   1.472       .  S
C458       C2052   1.486       .  S
C459        C632   1.484       .  S
C460       C1832   1.485       .  S
O461       Cu469   2.018       .  S
O461        C471   1.278       .  A
O462       Cu469   2.021       .  S
O462        C472   1.280       .  A
O463       Cu469   2.010       .  S
O463        C473   1.277       .  A
O464       Cu469   2.007       .  S
O464        C474   1.278       .  A
O465       Cu470   2.015       .  S
O465        C474   1.278       .  A
O466       Cu470   2.011       .  S
O466        C473   1.278       .  A
O467       Cu470   2.017       .  S
O467        C472   1.278       .  A
O468       Cu470   2.015       .  S
O468        C471   1.279       .  A
Cu469      Cu470   2.370       .  S
C471       C2292   1.489       .  S
C472        C641   1.489       .  S
C473       C2072   1.476       .  S
C474        C872   1.478       .  S
O475       Cu483   2.004       .  S
O475        C485   1.277       .  A
O476       Cu483   2.005       .  S
O476        C486   1.277       .  A
O477       Cu483   1.998       .  S
O477        C487   1.277       .  A
O478       Cu483   1.999       .  S
O478        C488   1.277       .  A
O479       Cu484   2.012       .  S
O479        C488   1.278       .  A
O480       Cu484   2.015       .  S
O480        C487   1.278       .  A
O481       Cu484   2.021       .  S
O481        C486   1.279       .  A
O482       Cu484   2.021       .  S
O482        C485   1.279       .  A
Cu483      Cu484   2.372       .  S
C485        C852   1.480       .  S
C486       C1612   1.479       .  S
C487       C1112   1.474       .  S
C488       C2312   1.474       .  S
O489       Cu497   2.012       .  S
O489        C499   1.277       .  A
O490       Cu497   2.015       .  S
O490        C500   1.278       .  A
O491       Cu497   2.020       .  S
O491        C501   1.279       .  A
O492       Cu497   2.019       .  S
O492        C502   1.279       .  A
O493       Cu498   2.008       .  S
O493        C502   1.277       .  A
O494       Cu498   2.006       .  S
O494        C501   1.277       .  A
O495       Cu498   2.011       .  S
O495        C500   1.278       .  A
O496       Cu498   2.012       .  S
O496        C499   1.279       .  A
Cu497      Cu498   2.369       .  S
C499       C1341   1.491       .  S
C500       C1572   1.480       .  S
C501       C1092   1.481       .  S
C502       C1812   1.485       .  S
O503       Cu511   2.007       .  S
O503        C513   1.278       .  A
O504       Cu511   2.006       .  S
O504        C514   1.277       .  A
O505       Cu511   2.017       .  S
O505        C515   1.279       .  A
O506       Cu511   2.016       .  S
O506        C516   1.278       .  A
O507       Cu512   2.024       .  S
O507        C516   1.280       .  A
O508       Cu512   2.023       .  S
O508        C515   1.279       .  A
O509       Cu512   2.011       .  S
O509        C514   1.278       .  A
O510       Cu512   2.015       .  S
O510        C513   1.278       .  A
Cu511      Cu512   2.370       .  S
C513       C1592   1.483       .  S
C514       C2092   1.473       .  S
C515       C2332   1.487       .  S
C516       C1852   1.485       .  S
O517       Cu525   2.001   1_545  S
O517        C527   1.276       .  A
O518       Cu525   2.000       .  S
O518        C528   1.277       .  A
O519       Cu525   2.012   1_545  S
O519        C529   1.278       .  A
O520       Cu525   2.008       .  S
O520        C530   1.277       .  A
O521       Cu526   2.017       .  S
O521        C530   1.279       .  A
O522       Cu526   2.015   1_545  S
O522        C529   1.279       .  A
O523       Cu526   2.017       .  S
O523        C528   1.278       .  A
O524       Cu526   2.019   1_545  S
O524        C527   1.280       .  A
Cu525      Cu526   2.371       .  S
C527        C672   1.482       .  S
C528       C1212   1.473   1_455  S
C529        C961   1.483   1_455  S
C530       C1452   1.479       .  S
O531       Cu539   2.023   1_545  S
O531        C541   1.279       .  A
O532       Cu539   2.022       .  S
O532        C542   1.279   1_455  A
O533       Cu539   2.019   1_545  S
O533        C543   1.278   1_455  A
O534       Cu539   2.023       .  S
O534        C544   1.279       .  A
O535       Cu540   2.006       .  S
O535        C544   1.277       .  A
O536       Cu540   2.002   1_545  S
O536        C543   1.277   1_455  A
O537       Cu540   2.005       .  S
O537        C542   1.277   1_455  A
O538       Cu540   2.002   1_545  S
O538        C541   1.277       .  A
Cu539      Cu540   2.372       .  S
C541       C2161   1.478       .  S
C542       C1752   1.480       .  S
C543       C2401   1.471       .  S
C544       C1932   1.481       .  S
O545       Cu553   2.009   1_554  S
O545        C555   1.278       .  A
O546       Cu553   2.014   1_545  S
O546        C556   1.278       .  A
O547       Cu553   2.013       .  S
O547        C557   1.279       .  A
O548       Cu553   2.015   1_544  S
O548        C558   1.279       .  A
O549       Cu554   2.020   1_544  S
O549        C558   1.279       .  A
O550       Cu554   2.014       .  S
O550        C557   1.278       .  A
O551       Cu554   2.012   1_545  S
O551        C556   1.278       .  A
O552       Cu554   2.014   1_554  S
O552        C555   1.279       .  A
Cu553      Cu554   2.369       .  S
C555       C1381   1.484       .  S
C556       C2112   1.481       .  S
C557       C1992   1.483       .  S
C558        C732   1.491       .  S
O559       Cu567   2.016   1_556  S
O559        C569   1.279       .  A
O560       Cu567   2.017       .  S
O560        C570   1.278       .  A
O561       Cu567   2.013       .  S
O561        C571   1.278       .  A
O562       Cu567   2.014   1_556  S
O562        C572   1.278       .  A
O563       Cu568   2.012   1_556  S
O563        C572   1.278       .  A
O564       Cu568   2.012       .  S
O564        C571   1.278       .  A
O565       Cu568   2.005       .  S
O565        C570   1.278       .  A
O566       Cu568   2.006   1_556  S
O566        C569   1.277       .  A
Cu567      Cu568   2.370       .  S
C569       C2232   1.482       .  S
C570       C1032   1.484   1_455  S
C571        C781   1.480       .  S
C572       C2352   1.479   1_455  S
O573       Cu581   2.011   1_546  S
O573        C583   1.278       .  A
O574       Cu581   2.018       .  S
O574        C584   1.279       .  A
O575       Cu581   2.014   1_545  S
O575        C585   1.278       .  A
O576       Cu581   2.001   1_556  S
O576        C586   1.277       .  A
O577       Cu582   2.021   1_556  S
O577        C586   1.279       .  A
O578       Cu582   2.014   1_545  S
O578        C585   1.279       .  A
O579       Cu582   1.998       .  S
O579        C584   1.276       .  A
O580       Cu582   2.008   1_546  S
O580        C583   1.277       .  A
Cu581      Cu582   2.374       .  S
C583       C2472   1.477       .  S
C584       C1261   1.474       .  S
C585        C912   1.478       .  S
C586       C1692   1.480       .  S
O587       Cu595   2.016       .  S
O587        C597   1.278       .  A
O588       Cu595   2.011   1_556  S
O588        C598   1.278       .  A
O589       Cu595   2.014   1_556  S
O589        C599   1.278       .  A
O590       Cu595   2.013       .  S
O590        C600   1.278       .  A
O591       Cu596   2.007       .  S
O591        C600   1.278       .  A
O592       Cu596   2.003   1_556  S
O592        C599   1.277       .  A
O593       Cu596   2.018   1_556  S
O593        C598   1.279       .  A
O594       Cu596   2.014       .  S
O594        C597   1.279       .  A
Cu595      Cu596   2.369       .  S
C597       C1512   1.490       .  S
C598       C1632   1.485   1_455  S
C599       C1872   1.476       .  S
C600       C1152   1.482   1_455  S
C601        C602   1.413       .  A
C601        C606   1.407       .  A
C602        C603   1.402       .  A
C602       Br618   1.919       .  S
C603        C604   1.403       .  A
C603        H607   1.083       .  S
C604        C605   1.407       .  A
C604        C608   1.483       .  S
C605        C606   1.400       .  A
C605       Br617   1.919       .  S
C606        H609   1.083       .  S
C608        C610   1.402       .  A
C608        C614   1.408       .  A
C610        C611   1.401       .  A
C610        H615   1.084       .  S
C611        C612   1.415       .  A
C611       Br619   1.921       .  S
C612        C613   1.407       .  A
C613        C614   1.401       .  A
C613        H616   1.083       .  S
C614       Br620   1.918       .  S
C621        C622   1.414       .  A
C621        C626   1.405       .  A
C622        C623   1.402       .  A
C622       Br638   1.920       .  S
C623        C624   1.402       .  A
C623        H627   1.084       .  S
C624        C625   1.408       .  A
C624        C628   1.479       .  S
C625        C626   1.397       .  A
C625       Br637   1.920       .  S
C626        H629   1.084       .  S
C628        C630   1.401       .  A
C628        C634   1.406       .  A
C630        C631   1.401       .  A
C630        H635   1.084       .  S
C631        C632   1.415       .  A
C631       Br639   1.918       .  S
C632        C633   1.406       .  A
C633        C634   1.398       .  A
C633        H636   1.083       .  S
C634       Br640   1.919       .  S
C641        C642   1.416       .  A
C641        C646   1.407       .  A
C642        C643   1.402       .  A
C642       Br658   1.921       .  S
C643        C644   1.403       .  A
C643        H647   1.083       .  S
C644        C645   1.409       .  A
C644        C648   1.488       .  S
C645        C646   1.403       .  A
C645       Br657   1.918       .  S
C646        H649   1.083       .  S
C648        C650   1.404       .  A
C648        C654   1.411       .  A
C650        C651   1.402       .  A
C650        H655   1.083       .  S
C651        C652   1.412       .  A
C651       Br659   1.920       .  S
C652        C653   1.404       .  A
C653        C654   1.403       .  A
C653        H656   1.083       .  S
C654       Br660   1.918       .  S
C661        C662   1.410       .  A
C661        C666   1.404       .  A
C662        C663   1.400       .  A
C662       Br678   1.919       .  S
C663        C664   1.404       .  A
C663        H667   1.083       .  S
C664        C665   1.410       .  A
C664        C668   1.483       .  S
C665        C666   1.399       .  A
C665       Br677   1.920       .  S
C666        H669   1.083       .  S
C668        C670   1.402       .  A
C668        C674   1.409       .  A
C670        C671   1.399       .  A
C670        H675   1.084       .  S
C671        C672   1.415       .  A
C671       Br679   1.921       .  S
C672        C673   1.405       .  A
C673        C674   1.400       .  A
C673        H676   1.083       .  S
C674       Br680   1.919       .  S
C681        C682   1.410       .  A
C681        C686   1.403       .  A
C682        C683   1.399       .  A
C682       Br698   1.920       .  S
C683        C684   1.402       .  A
C683        H687   1.083       .  S
C684        C685   1.407       .  A
C684        C688   1.477       .  S
C685        C686   1.399       .  A
C685       Br697   1.918       .  S
C686        H689   1.083       .  S
C688        C690   1.402       .  A
C688        C694   1.408       .  A
C690        C691   1.396       .  A
C690        H695   1.084       .  S
C691        C692   1.407       .  A
C691       Br699   1.919       .  S
C692        C693   1.403       .  A
C693        C694   1.402       .  A
C693        H696   1.083       .  S
C694       Br700   1.917       .  S
C701        C702   1.410       .  A
C701        C706   1.403       .  A
C702        C703   1.402       .  A
C702       Br718   1.919       .  S
C703        C704   1.403       .  A
C703        H707   1.083       .  S
C704        C705   1.409       .  A
C704        C708   1.481       .  S
C705        C706   1.399       .  A
C705       Br717   1.919       .  S
C706        H709   1.083       .  S
C708        C710   1.403       .  A
C708        C714   1.409       .  A
C710        C711   1.400       .  A
C710        H715   1.084       .  S
C711        C712   1.409       .  A
C711       Br719   1.919       .  S
C712        C713   1.402       .  A
C713        C714   1.400       .  A
C713        H716   1.083       .  S
C714       Br720   1.918       .  S
C721        C722   1.413       .  A
C721        C726   1.405       .  A
C722        C723   1.401       .  A
C722       Br738   1.920       .  S
C723        C724   1.404       .  A
C723        H727   1.083       .  S
C724        C725   1.410       .  A
C724        C728   1.487       .  S
C725        C726   1.402       .  A
C725       Br737   1.919       .  S
C726        H729   1.083       .  S
C728        C730   1.403       .  A
C728        C734   1.408       .  A
C730        C731   1.403       .  A
C730        H735   1.083       .  S
C731        C732   1.417       .  A
C731       Br739   1.921       .  S
C732        C733   1.408       .  A
C733        C734   1.401       .  A
C733        H736   1.083       .  S
C734       Br740   1.919       .  S
C741        C742   1.408       .  A
C741        C746   1.402       .  A
C742        C743   1.402       .  A
C742       Br758   1.918       .  S
C743        C744   1.405       .  A
C743        H747   1.083       .  S
C744        C745   1.410       .  A
C744        C748   1.483       .  S
C745        C746   1.398       .  A
C745       Br757   1.919       .  S
C746        H749   1.083       .  S
C748        C750   1.403       .  A
C748        C754   1.409       .  A
C750        C751   1.400       .  A
C750        H755   1.083       .  S
C751        C752   1.412       .  A
C751       Br759   1.920       .  S
C752        C753   1.404       .  A
C753        C754   1.399       .  A
C753        H756   1.083       .  S
C754       Br760   1.919       .  S
C761        C762   1.408       .  A
C761        C766   1.402       .  A
C762        C763   1.402       .  A
C762       Br778   1.918       .  S
C763        C764   1.404       .  A
C763        H767   1.083       .  S
C764        C765   1.409       .  A
C764        C768   1.482       .  S
C765        C766   1.400       .  A
C765       Br777   1.919       .  S
C766        H769   1.083       .  S
C768        C770   1.403       .  A
C768        C774   1.410       .  A
C770        C771   1.402       .  A
C770        H775   1.083       .  S
C771        C772   1.409       .  A
C771       Br779   1.918       .  S
C772        C773   1.402       .  A
C773        C774   1.400       .  A
C773        H776   1.083       .  S
C774       Br780   1.919       .  S
C781        C782   1.412       .  A
C781        C786   1.406       .  A
C782        C783   1.399       .  A
C782       Br798   1.920       .  S
C783        C784   1.403       .  A
C783        H787   1.084       .  S
C784        C785   1.407       .  A
C784        C788   1.480       .  S
C785        C786   1.400       .  A
C785       Br797   1.918       .  S
C786        H789   1.083       .  S
C788        C790   1.403       .  A
C788        C794   1.408       .  A
C790        C791   1.401       .  A
C790        H795   1.083       .  S
C791        C792   1.411       .  A
C791       Br799   1.919       .  S
C792        C793   1.404       .  A
C793        C794   1.398       .  A
C793        H796   1.083       .  S
C794       Br800   1.919       .  S
C801        C802   1.413       .  A
C801        C806   1.406       .  A
C802        C803   1.401       .  A
C802       Br818   1.920       .  S
C803        C804   1.402       .  A
C803        H807   1.083       .  S
C804        C805   1.407       .  A
C804        C808   1.479       .  S
C805        C806   1.398       .  A
C805       Br817   1.919       .  S
C806        H809   1.083       .  S
C808        C810   1.402       .  A
C808        C814   1.407       .  A
C810        C811   1.400       .  A
C810        H815   1.083       .  S
C811        C812   1.413       .  A
C811       Br819   1.921       .  S
C812        C813   1.405       .  A
C813        C814   1.399       .  A
C813        H816   1.083       .  S
C814       Br820   1.918       .  S
C821        C822   1.412       .  A
C821        C826   1.405       .  A
C822        C823   1.399       .  A
C822       Br838   1.920       .  S
C823        C824   1.402       .  A
C823        H827   1.084       .  S
C824        C825   1.408       .  A
C824        C828   1.481       .  S
C825        C826   1.402       .  A
C825       Br837   1.918       .  S
C826        H829   1.083       .  S
C828        C830   1.402       .  A
C828        C834   1.408       .  A
C830        C831   1.401       .  A
C830        H835   1.083       .  S
C831        C832   1.413       .  A
C831       Br839   1.920       .  S
C832        C833   1.405       .  A
C833        C834   1.400       .  A
C833        H836   1.083       .  S
C834       Br840   1.918       .  S
C841        C842   1.411       .  A
C841        C846   1.406       .  A
C842        C843   1.398       .  A
C842       Br858   1.920       .  S
C843        C844   1.402       .  A
C843        H847   1.083       .  S
C844        C845   1.407       .  A
C844        C848   1.478       .  S
C845        C846   1.401       .  A
C845       Br857   1.917       .  S
C846        H849   1.083       .  S
C848        C850   1.402       .  A
C848        C854   1.406       .  A
C850        C851   1.403       .  A
C850        H855   1.083       .  S
C851        C852   1.413       .  A
C851       Br859   1.920       .  S
C852        C853   1.405       .  A
C853        C854   1.398       .  A
C853        H856   1.084       .  S
C854       Br860   1.919       .  S
C861        C862   1.411       .  A
C861        C866   1.406       .  A
C862        C863   1.399       .  A
C862       Br878   1.917       .  S
C863        C864   1.402       .  A
C863        H867   1.084       .  S
C864        C865   1.407       .  A
C864        C868   1.479       .  S
C865        C866   1.401       .  A
C865       Br877   1.918       .  S
C866        H869   1.083       .  S
C868        C870   1.403       .  A
C868        C874   1.407       .  A
C870        C871   1.402       .  A
C870        H875   1.083       .  S
C871        C872   1.412       .  A
C871       Br879   1.920       .  S
C872        C873   1.404       .  A
C873        C874   1.398       .  A
C873        H876   1.083       .  S
C874       Br880   1.919       .  S
C881        C882   1.416       .  A
C881        C886   1.406       .  A
C882        C883   1.399       .  A
C882       Br898   1.922       .  S
C883        C884   1.401       .  A
C883        H887   1.083       .  S
C884        C885   1.408       .  A
C884        C888   1.483       .  S
C885        C886   1.402       .  A
C885       Br897   1.918       .  S
C886        H889   1.083       .  S
C888        C890   1.403       .  A
C888        C894   1.408       .  A
C890        C891   1.403       .  A
C890        H895   1.083       .  S
C891        C892   1.415       .  A
C891       Br899   1.921       .  S
C892        C893   1.405       .  A
C893        C894   1.399       .  A
C893        H896   1.083       .  S
C894       Br900   1.919       .  S
C901        C902   1.408       .  A
C901        C906   1.404       .  A
C902        C903   1.398       .  A
C902       Br918   1.919       .  S
C903        C904   1.402       .  A
C903        H907   1.083       .  S
C904        C905   1.410       .  A
C904        C908   1.482       .  S
C905        C906   1.404       .  A
C905       Br917   1.918       .  S
C906        H909   1.083       .  S
C908        C910   1.403       .  A
C908        C914   1.409       .  A
C910        C911   1.399       .  A
C910        H915   1.083       .  S
C911        C912   1.410       .  A
C911       Br919   1.919       .  S
C912        C913   1.405       .  A
C913        C914   1.402       .  A
C913        H916   1.083       .  S
C914       Br920   1.918       .  S
C921        C922   1.408       .  A
C921        C926   1.403       .  A
C922        C923   1.400       .  A
C922       Br938   1.918       .  S
C923        C924   1.403       .  A
C923        H927   1.083       .  S
C924        C925   1.407       .  A
C924        C928   1.477       .  S
C925        C926   1.399       .  A
C925       Br937   1.918       .  S
C926        H929   1.083       .  S
C928        C930   1.402       .  A
C928        C934   1.407       .  A
C930        C931   1.398       .  A
C930        H935   1.084       .  S
C931        C932   1.409       .  A
C931       Br939   1.917       .  S
C932        C933   1.404       .  A
C933        C934   1.400       .  A
C933        H936   1.083       .  S
C934       Br940   1.917       .  S
C941        C942   1.419       .  A
C941        C946   1.410       .  A
C942        C943   1.404       .  A
C942       Br958   1.921       .  S
C943        C944   1.406       .  A
C943        H947   1.083       .  S
C944        C945   1.412       .  A
C944        C948   1.498       .  S
C945        C946   1.398       .  A
C945       Br957   1.923       .  S
C946        H949   1.082       .  S
C948        C950   1.407       .  A
C948        C954   1.413       .  A
C950        C951   1.403       .  A
C950        H955   1.083       .  S
C951        C952   1.417       .  A
C951       Br959   1.921       .  S
C952        C953   1.410       .  A
C953        C954   1.399       .  A
C953        H956   1.083       .  S
C954       Br960   1.922       .  S
C961        C962   1.413       .  A
C961        C966   1.406       .  A
C962        C963   1.400       .  A
C962       Br978   1.920       .  S
C963        C964   1.403       .  A
C963        H967   1.084       .  S
C964        C965   1.408       .  A
C964        C968   1.483       .  S
C965        C966   1.401       .  A
C965       Br977   1.919       .  S
C966        H969   1.083   1_655  S
C968        C970   1.404       .  A
C968        C974   1.410       .  A
C970        C971   1.401       .  A
C970        H975   1.083       .  S
C971        C972   1.408       .  A
C971       Br979   1.918       .  S
C972        C973   1.403       .  A
C973        C974   1.400       .  A
C973        H976   1.084       .  S
C974       Br980   1.919       .  S
C981        C982   1.410       .  A
C981        C986   1.404       .  A
C982        C983   1.397       .  A
C982       Br998   1.920       .  S
C983        C984   1.402       .  A
C983        H987   1.083       .  S
C984        C985   1.407       .  A
C984        C988   1.476       .  S
C985        C986   1.400       .  A
C985       Br997   1.917       .  S
C986        H989   1.083       .  S
C988        C990   1.402       .  A
C988        C994   1.407       .  A
C990        C991   1.399       .  A
C990        H995   1.083       .  S
C991        C992   1.410       .  A
C991       Br999   1.919       .  S
C992        C993   1.404       .  A
C993        C994   1.399       .  A
C993        H996   1.083       .  S
C994      Br1000   1.918       .  S
C1001      C1002   1.409       .  A
C1001      C1006   1.404       .  A
C1002      C1003   1.403       .  A
C1002     Br1018   1.918       .  S
C1003      C1004   1.403       .  A
C1003      H1007   1.083       .  S
C1004      C1005   1.407       .  A
C1004      C1008   1.478       .  S
C1005      C1006   1.398       .  A
C1005     Br1017   1.919       .  S
C1006      H1009   1.083       .  S
C1008      C1010   1.403       .  A
C1008      C1014   1.407       .  A
C1010      C1011   1.400       .  A
C1010      H1015   1.083       .  S
C1011      C1012   1.409       .  A
C1011     Br1019   1.919       .  S
C1012      C1013   1.404       .  A
C1013      C1014   1.400       .  A
C1013      H1016   1.083       .  S
C1014     Br1020   1.917       .  S
C1021      C1022   1.411       .  A
C1021      C1026   1.404       .  A
C1022      C1023   1.398       .  A
C1022     Br1038   1.921       .  S
C1023      C1024   1.402       .  A
C1023      H1027   1.083       .  S
C1024      C1025   1.408       .  A
C1024      C1028   1.480       .  S
C1025      C1026   1.401       .  A
C1025     Br1037   1.918       .  S
C1026      H1029   1.083       .  S
C1028      C1030   1.403       .  A
C1028      C1034   1.406       .  A
C1030      C1031   1.403       .  A
C1030      H1035   1.083       .  S
C1031      C1032   1.415       .  A
C1031     Br1039   1.920       .  S
C1032      C1033   1.406       .  A
C1033      C1034   1.397       .  A
C1033      H1036   1.083       .  S
C1034     Br1040   1.919       .  S
C1041      C1042   1.410       .  A
C1041      C1046   1.405       .  A
C1042      C1043   1.401       .  A
C1042     Br1058   1.918       .  S
C1043      C1044   1.402       .  A
C1043      H1047   1.083       .  S
C1044      C1045   1.406       .  A
C1044      C1048   1.476       .  S
C1045      C1046   1.399       .  A
C1045     Br1057   1.919       .  S
C1046      H1049   1.083       .  S
C1048      C1050   1.403       .  A
C1048      C1054   1.406       .  A
C1050      C1051   1.400       .  A
C1050      H1055   1.083       .  S
C1051      C1052   1.408       .  A
C1051     Br1059   1.919       .  S
C1052      C1053   1.403       .  A
C1053      C1054   1.399       .  A
C1053      H1056   1.083       .  S
C1054     Br1060   1.917       .  S
C1061      C1062   1.411       .  A
C1061      C1066   1.404       .  A
C1062      C1063   1.399       .  A
C1062     Br1078   1.920       .  S
C1063      C1064   1.403       .  A
C1063      H1067   1.083       .  S
C1064      C1065   1.408       .  A
C1064      C1068   1.478       .  S
C1065      C1066   1.398       .  A
C1065     Br1077   1.919       .  S
C1066      H1069   1.084       .  S
C1068      C1070   1.402       .  A
C1068      C1074   1.409       .  A
C1070      C1071   1.399       .  A
C1070      H1075   1.083       .  S
C1071      C1072   1.410       .  A
C1071     Br1079   1.919       .  S
C1072      C1073   1.403       .  A
C1073      C1074   1.398       .  A
C1073      H1076   1.083       .  S
C1074     Br1080   1.920       .  S
C1081      C1082   1.409       .  A
C1081      C1086   1.404       .  A
C1082      C1083   1.399       .  A
C1082     Br1098   1.919       .  S
C1083      C1084   1.403       .  A
C1083      H1087   1.083       .  S
C1084      C1085   1.411       .  A
C1084      C1088   1.483       .  S
C1085      C1086   1.402       .  A
C1085     Br1097   1.919       .  S
C1086      H1089   1.083       .  S
C1088      C1090   1.403       .  A
C1088      C1094   1.409       .  A
C1090      C1091   1.400       .  A
C1090      H1095   1.084       .  S
C1091      C1092   1.412       .  A
C1091     Br1099   1.919       .  S
C1092      C1093   1.406       .  A
C1093      C1094   1.401       .  A
C1093      H1096   1.084       .  S
C1094     Br1100   1.919       .  S
C1101      C1102   1.412       .  A
C1101      C1106   1.404       .  A
C1102      C1103   1.401       .  A
C1102     Br1118   1.919       .  S
C1103      C1104   1.402       .  A
C1103      H1107   1.083       .  S
C1104      C1105   1.406       .  A
C1104      C1108   1.475       .  S
C1105      C1106   1.395       .  A
C1105     Br1117   1.920       .  S
C1106      H1109   1.084       .  S
C1108      C1110   1.401       .  A
C1108      C1114   1.407       .  A
C1110      C1111   1.396       .  A
C1110      H1115   1.084       .  S
C1111      C1112   1.411       .  A
C1111     Br1119   1.921       .  S
C1112      C1113   1.405       .  A
C1113      C1114   1.401       .  A
C1113      H1116   1.083       .  S
C1114     Br1120   1.918       .  S
C1121      C1122   1.412       .  A
C1121      C1126   1.406       .  A
C1122      C1123   1.398       .  A
C1122     Br1138   1.916       .  S
C1123      C1124   1.402       .  A
C1123      H1127   1.083       .  S
C1124      C1125   1.407       .  A
C1124      C1128   1.478       .  S
C1125      C1126   1.398       .  A
C1125     Br1137   1.919       .  S
C1126      H1129   1.083       .  S
C1128      C1130   1.401       .  A
C1128      C1134   1.407       .  A
C1130      C1131   1.399       .  A
C1130      H1135   1.084       .  S
C1131      C1132   1.415       .  A
C1131     Br1139   1.921       .  S
C1132      C1133   1.407       .  A
C1133      C1134   1.398       .  A
C1133      H1136   1.083       .  S
C1134     Br1140   1.920       .  S
C1141      C1142   1.415       .  A
C1141      C1146   1.407       .  A
C1142      C1143   1.400       .  A
C1142     Br1158   1.920       .  S
C1143      C1144   1.401       .  A
C1143      H1147   1.084       .  S
C1144      C1145   1.407       .  A
C1144      C1148   1.478       .  S
C1145      C1146   1.398       .  A
C1145     Br1157   1.919       .  S
C1146      H1149   1.083       .  S
C1148      C1150   1.401       .  A
C1148      C1154   1.407       .  A
C1150      C1151   1.400       .  A
C1150      H1155   1.083       .  S
C1151      C1152   1.414       .  A
C1151     Br1159   1.921       .  S
C1152      C1153   1.406       .  A
C1153      C1154   1.399       .  A
C1153      H1156   1.083       .  S
C1154     Br1160   1.919       .  S
C1161      C1162   1.412       .  A
C1161      C1166   1.404       .  A
C1162      C1163   1.397       .  A
C1162     Br1178   1.920       .  S
C1163      C1164   1.401       .  A
C1163      H1167   1.084       .  S
C1164      C1165   1.408       .  A
C1164      C1168   1.475       .  S
C1165      C1166   1.397       .  A
C1165     Br1177   1.919       .  S
C1166      H1169   1.084       .  S
C1168      C1170   1.402       .  A
C1168      C1174   1.407       .  A
C1170      C1171   1.398       .  A
C1170      H1175   1.083       .  S
C1171      C1172   1.410       .  A
C1171     Br1179   1.920       .  S
C1172      C1173   1.404       .  A
C1173      C1174   1.396       .  A
C1173      H1176   1.083       .  S
C1174     Br1180   1.920       .  S
C1181      C1182   1.410       .  A
C1181      C1186   1.404       .  A
C1182      C1183   1.396       .  A
C1182     Br1198   1.921       .  S
C1183      C1184   1.400       .  A
C1183      H1187   1.084       .  S
C1184      C1185   1.408       .  A
C1184      C1188   1.474       .  S
C1185      C1186   1.401       .  A
C1185     Br1197   1.917       .  S
C1186      H1189   1.083       .  S
C1188      C1190   1.402       .  A
C1188      C1194   1.406       .  A
C1190      C1191   1.399       .  A
C1190      H1195   1.083       .  S
C1191      C1192   1.411       .  A
C1191     Br1199   1.919       .  S
C1192      C1193   1.404       .  A
C1193      C1194   1.397       .  A
C1193      H1196   1.083       .  S
C1194     Br1200   1.919       .  S
C1201      C1202   1.411       .  A
C1201      C1206   1.404       .  A
C1202      C1203   1.401       .  A
C1202     Br1218   1.919       .  S
C1203      C1204   1.402       .  A
C1203      H1207   1.083       .  S
C1204      C1205   1.406       .  A
C1204      C1208   1.475       .  S
C1205      C1206   1.397       .  A
C1205     Br1217   1.919       .  S
C1206      H1209   1.084       .  S
C1208      C1210   1.401       .  A
C1208      C1214   1.407       .  A
C1210      C1211   1.398       .  A
C1210      H1215   1.083       .  S
C1211      C1212   1.410       .  A
C1211     Br1219   1.921   1_655  S
C1212      C1213   1.403       .  A
C1213      C1214   1.400       .  A
C1213      H1216   1.083       .  S
C1214     Br1220   1.918       .  S
C1221      C1222   1.411       .  A
C1221      C1226   1.405       .  A
C1222      C1223   1.399       .  A
C1222     Br1238   1.920       .  S
C1223      C1224   1.402       .  A
C1223      H1227   1.083       .  S
C1224      C1225   1.405       .  A
C1224      C1228   1.474       .  S
C1225      C1226   1.399       .  A
C1225     Br1237   1.918       .  S
C1226      H1229   1.083       .  S
C1228      C1230   1.402       .  A
C1228      C1234   1.407       .  A
C1230      C1231   1.398       .  A
C1230      H1235   1.083       .  S
C1231      C1232   1.408       .  A
C1231     Br1239   1.919       .  S
C1232      C1233   1.403       .  A
C1233      C1234   1.399       .  A
C1233      H1236   1.083       .  S
C1234     Br1240   1.918       .  S
C1241      C1242   1.417       .  A
C1241      C1246   1.408       .  A
C1242      C1243   1.397       .  A
C1242     Br1258   1.923       .  S
C1243      C1244   1.403       .  A
C1243      H1247   1.083       .  S
C1244      C1245   1.411       .  A
C1244      C1248   1.487       .  S
C1245      C1246   1.397       .  A
C1245     Br1257   1.922       .  S
C1246      H1249   1.083       .  S
C1248      C1250   1.405       .  A
C1248      C1254   1.411       .  A
C1250      C1251   1.400       .  A
C1250      H1255   1.083       .  S
C1251      C1252   1.416       .  A
C1251     Br1259   1.922       .  S
C1252      C1253   1.407       .  A
C1253      C1254   1.393       .  A
C1253      H1256   1.083       .  S
C1254     Br1260   1.923       .  S
C1261      C1262   1.411       .  A
C1261      C1266   1.404       .  A
C1262      C1263   1.401       .  A
C1262     Br1278   1.919       .  S
C1263      C1264   1.402       .  A
C1263      H1267   1.083       .  S
C1264      C1265   1.406       .  A
C1264      C1268   1.475       .  S
C1265      C1266   1.397       .  A
C1265     Br1277   1.919       .  S
C1266      H1269   1.082       .  S
C1268      C1270   1.402       .  A
C1268      C1274   1.406       .  A
C1270      C1271   1.398       .  A
C1270      H1275   1.083       .  S
C1271      C1272   1.409       .  A
C1271     Br1279   1.919       .  S
C1272      C1273   1.404       .  A
C1273      C1274   1.399       .  A
C1273      H1276   1.083       .  S
C1274     Br1280   1.917       .  S
C1281      C1282   1.408       .  A
C1281      C1286   1.403       .  A
C1282      C1283   1.399       .  A
C1282     Br1298   1.918       .  S
C1283      C1284   1.403       .  A
C1283      H1287   1.083       .  S
C1284      C1285   1.408       .  A
C1284      C1288   1.477       .  S
C1285      C1286   1.399       .  A
C1285     Br1297   1.918       .  S
C1286      H1289   1.083       .  S
C1288      C1290   1.402       .  A
C1288      C1294   1.409       .  A
C1290      C1291   1.400       .  A
C1290      H1295   1.083       .  S
C1291      C1292   1.412       .  A
C1291     Br1299   1.920       .  S
C1292      C1293   1.402       .  A
C1293      C1294   1.398       .  A
C1293      H1296   1.083       .  S
C1294     Br1300   1.919       .  S
C1301      C1302   1.409       .  A
C1301      C1306   1.405       .  A
C1302      C1303   1.398       .  A
C1302     Br1318   1.918       .  S
C1303      C1304   1.402       .  A
C1303      H1307   1.084       .  S
C1304      C1305   1.407       .  A
C1304      C1308   1.477       .  S
C1305      C1306   1.401       .  A
C1305     Br1317   1.917       .  S
C1306      H1309   1.083       .  S
C1308      C1310   1.401       .  A
C1308      C1314   1.407       .  A
C1310      C1311   1.399       .  A
C1310      H1315   1.083       .  S
C1311      C1312   1.410       .  A
C1311     Br1319   1.916       .  S
C1312      C1313   1.404       .  A
C1313      C1314   1.400       .  A
C1313      H1316   1.083       .  S
C1314     Br1320   1.917       .  S
C1321      C1322   1.407       .  A
C1321      C1326   1.403       .  A
C1322      C1323   1.397       .  A
C1322     Br1338   1.919       .  S
C1323      C1324   1.402       .  A
C1323      H1327   1.084       .  S
C1324      C1325   1.410       .  A
C1324      C1328   1.480       .  S
C1325      C1326   1.402       .  A
C1325     Br1337   1.918       .  S
C1326      H1329   1.083       .  S
C1328      C1330   1.403       .  A
C1328      C1334   1.409       .  A
C1330      C1331   1.399       .  A
C1330      H1335   1.083       .  S
C1331      C1332   1.408       .  A
C1331     Br1339   1.920       .  S
C1332      C1333   1.403       .  A
C1333      C1334   1.401       .  A
C1333      H1336   1.083       .  S
C1334     Br1340   1.919       .  S
C1341      C1342   1.419       .  A
C1341      C1346   1.408       .  A
C1342      C1343   1.402       .  A
C1342     Br1358   1.921       .  S
C1343      C1344   1.402       .  A
C1343      H1347   1.084       .  S
C1344      C1345   1.408       .  A
C1344      C1348   1.484       .  S
C1345      C1346   1.398       .  A
C1345     Br1357   1.920       .  S
C1346      H1349   1.083       .  S
C1348      C1350   1.403       .  A
C1348      C1354   1.409       .  A
C1350      C1351   1.399       .  A
C1350      H1355   1.084       .  S
C1351      C1352   1.415       .  A
C1351     Br1359   1.921       .  S
C1352      C1353   1.406       .  A
C1353      C1354   1.401       .  A
C1353      H1356   1.083       .  S
C1354     Br1360   1.919       .  S
C1361      C1362   1.411       .  A
C1361      C1366   1.405       .  A
C1362      C1363   1.400       .  A
C1362     Br1378   1.916       .  S
C1363      C1364   1.405       .  A
C1363      H1367   1.083       .  S
C1364      C1365   1.411       .  A
C1364      C1368   1.489       .  S
C1365      C1366   1.401       .  A
C1365     Br1377   1.920       .  S
C1366      H1369   1.083       .  S
C1368      C1370   1.404       .  A
C1368      C1374   1.411       .  A
C1370      C1371   1.402       .  A
C1370      H1375   1.083       .  S
C1371      C1372   1.415       .  A
C1371     Br1379   1.920       .  S
C1372      C1373   1.407       .  A
C1373      C1374   1.401       .  A
C1373      H1376   1.083       .  S
C1374     Br1380   1.920       .  S
C1381      C1382   1.415       .  A
C1381      C1386   1.406       .  A
C1382      C1383   1.400       .  A
C1382     Br1398   1.921       .  S
C1383      C1384   1.402       .  A
C1383      H1387   1.083       .  S
C1384      C1385   1.407       .  A
C1384      C1388   1.481       .  S
C1385      C1386   1.400       .  A
C1385     Br1397   1.919       .  S
C1386      H1389   1.083       .  S
C1388      C1390   1.402       .  A
C1388      C1394   1.408       .  A
C1390      C1391   1.401       .  A
C1390      H1395   1.083       .  S
C1391      C1392   1.413       .  A
C1391     Br1399   1.920       .  S
C1392      C1393   1.405       .  A
C1393      C1394   1.399       .  A
C1393      H1396   1.083       .  S
C1394     Br1400   1.919       .  S
C1401      C1402   1.409       .  A
C1401      C1406   1.404       .  A
C1402      C1403   1.398       .  A
C1402     Br1418   1.919       .  S
C1403      C1404   1.402       .  A
C1403      H1407   1.083       .  S
C1404      C1405   1.409       .  A
C1404      C1408   1.481       .  S
C1405      C1406   1.403       .  A
C1405     Br1417   1.917       .  S
C1406      H1409   1.083       .  S
C1408      C1410   1.403       .  A
C1408      C1414   1.408       .  A
C1410      C1411   1.400       .  A
C1410      H1415   1.083       .  S
C1411      C1412   1.410       .  A
C1411     Br1419   1.919       .  S
C1412      C1413   1.404       .  A
C1413      C1414   1.401       .  A
C1413      H1416   1.083       .  S
C1414     Br1420   1.918       .  S
C1421      C1422   1.410       .  A
C1421      C1426   1.405       .  A
C1422      C1423   1.397       .  A
C1422     Br1438   1.920       .  S
C1423      C1424   1.401       .  A
C1423      H1427   1.083       .  S
C1424      C1425   1.407       .  A
C1424      C1428   1.476       .  S
C1425      C1426   1.401       .  A
C1425     Br1437   1.917       .  S
C1426      H1429   1.083       .  S
C1428      C1430   1.401       .  A
C1428      C1434   1.407       .  A
C1430      C1431   1.400       .  A
C1430      H1435   1.083       .  S
C1431      C1432   1.412       .  A
C1431     Br1439   1.920       .  S
C1432      C1433   1.404       .  A
C1433      C1434   1.399       .  A
C1433      H1436   1.083       .  S
C1434     Br1440   1.918       .  S
C1441      C1442   1.410       .  A
C1441      C1446   1.405       .  A
C1442      C1443   1.400       .  A
C1442     Br1458   1.918       .  S
C1443      C1444   1.402       .  A
C1443      H1447   1.083       .  S
C1444      C1445   1.407       .  A
C1444      C1448   1.479       .  S
C1445      C1446   1.400       .  A
C1445     Br1457   1.918       .  S
C1446      H1449   1.083       .  S
C1448      C1450   1.402       .  A
C1448      C1454   1.407       .  A
C1450      C1451   1.400       .  A
C1450      H1455   1.083       .  S
C1451      C1452   1.412       .  A
C1451     Br1459   1.920       .  S
C1452      C1453   1.405       .  A
C1453      C1454   1.401       .  A
C1453      H1456   1.083       .  S
C1454     Br1460   1.918       .  S
C1461      C1462   1.411       .  A
C1461      C1466   1.403       .  A
C1462      C1463   1.402       .  A
C1462     Br1478   1.917       .  S
C1463      C1464   1.404       .  A
C1463      H1467   1.083       .  S
C1464      C1465   1.409       .  A
C1464      C1468   1.482       .  S
C1465      C1466   1.398       .  A
C1465     Br1477   1.919       .  S
C1466      H1469   1.083       .  S
C1468      C1470   1.404       .  A
C1468      C1474   1.410       .  A
C1470      C1471   1.398       .  A
C1470      H1475   1.083       .  S
C1471      C1472   1.407       .  A
C1471     Br1479   1.918       .  S
C1472      C1473   1.403       .  A
C1473      C1474   1.402       .  A
C1473      H1476   1.083       .  S
C1474     Br1480   1.918       .  S
C1481      C1482   1.410       .  A
C1481      C1486   1.404       .  A
C1482      C1483   1.398       .  A
C1482     Br1498   1.920       .  S
C1483      C1484   1.403       .  A
C1483      H1487   1.084       .  S
C1484      C1485   1.410       .  A
C1484      C1488   1.482       .  S
C1485      C1486   1.401       .  A
C1485     Br1497   1.918       .  S
C1486      H1489   1.083       .  S
C1488      C1490   1.404       .  A
C1488      C1494   1.410       .  A
C1490      C1491   1.402       .  A
C1490      H1495   1.083       .  S
C1491      C1492   1.410       .  A
C1491     Br1499   1.918       .  S
C1492      C1493   1.402       .  A
C1493      C1494   1.399       .  A
C1493      H1496   1.083       .  S
C1494     Br1500   1.920       .  S
C1501      C1502   1.414       .  A
C1501      C1506   1.406       .  A
C1502      C1503   1.403       .  A
C1502     Br1518   1.920       .  S
C1503      C1504   1.403       .  A
C1503      H1507   1.083       .  S
C1504      C1505   1.408       .  A
C1504      C1508   1.483       .  S
C1505      C1506   1.400       .  A
C1505     Br1517   1.919       .  S
C1506      H1509   1.083       .  S
C1508      C1510   1.401       .  A
C1508      C1514   1.407       .  A
C1510      C1511   1.403       .  A
C1510      H1515   1.083       .  S
C1511      C1512   1.418       .  A
C1511     Br1519   1.921       .  S
C1512      C1513   1.408       .  A
C1513      C1514   1.400       .  A
C1513      H1516   1.083       .  S
C1514     Br1520   1.919       .  S
C1521      C1522   1.410       .  A
C1521      C1526   1.404       .  A
C1522      C1523   1.401       .  A
C1522     Br1538   1.918       .  S
C1523      C1524   1.403       .  A
C1523      H1527   1.083       .  S
C1524      C1525   1.407       .  A
C1524      C1528   1.480       .  S
C1525      C1526   1.400       .  A
C1525     Br1537   1.917       .  S
C1526      H1529   1.083       .  S
C1528      C1530   1.402       .  A
C1528      C1534   1.406       .  A
C1530      C1531   1.401       .  A
C1530      H1535   1.083       .  S
C1531      C1532   1.411       .  A
C1531     Br1539   1.916       .  S
C1532      C1533   1.406       .  A
C1533      C1534   1.400       .  A
C1533      H1536   1.083       .  S
C1534     Br1540   1.918       .  S
C1541      C1542   1.418       .  A
C1541      C1546   1.410       .  A
C1542      C1543   1.402       .  A
C1542     Br1558   1.922       .  S
C1543      C1544   1.405       .  A
C1543      H1547   1.083       .  S
C1544      C1545   1.412       .  A
C1544      C1548   1.495       .  S
C1545      C1546   1.399       .  A
C1545     Br1557   1.922       .  S
C1546      H1549   1.083       .  S
C1548      C1550   1.406       .  A
C1548      C1554   1.413       .  A
C1550      C1551   1.403       .  A
C1550      H1555   1.083       .  S
C1551      C1552   1.417       .  A
C1551     Br1559   1.921       .  S
C1552      C1553   1.407       .  A
C1553      C1554   1.397       .  A
C1553      H1556   1.083       .  S
C1554     Br1560   1.923       .  S
C1561      C1562   1.411       .  A
C1561      C1566   1.405       .  A
C1562      C1563   1.401       .  A
C1562     Br1578   1.919       .  S
C1563      C1564   1.404       .  A
C1563      H1567   1.083       .  S
C1564      C1565   1.408       .  A
C1564      C1568   1.482       .  S
C1565      C1566   1.398       .  A
C1565     Br1577   1.919       .  S
C1566      H1569   1.084       .  S
C1568      C1570   1.403       .  A
C1568      C1574   1.408       .  A
C1570      C1571   1.400       .  A
C1570      H1575   1.084       .  S
C1571      C1572   1.412       .  A
C1571     Br1579   1.921       .  S
C1572      C1573   1.405       .  A
C1573      C1574   1.401       .  A
C1573      H1576   1.084       .  S
C1574     Br1580   1.919       .  S
C1581      C1582   1.411       .  A
C1581      C1586   1.406       .  A
C1582      C1583   1.400       .  A
C1582     Br1598   1.919       .  S
C1583      C1584   1.403       .  A
C1583      H1587   1.083       .  S
C1584      C1585   1.407       .  A
C1584      C1588   1.481       .  S
C1585      C1586   1.399       .  A
C1585     Br1597   1.918       .  S
C1586      H1589   1.083       .  S
C1588      C1590   1.403       .  A
C1588      C1594   1.407       .  A
C1590      C1591   1.401       .  A
C1590      H1595   1.083       .  S
C1591      C1592   1.415       .  A
C1591     Br1599   1.920       .  S
C1592      C1593   1.406       .  A
C1593      C1594   1.398       .  A
C1593      H1596   1.083       .  S
C1594     Br1600   1.919       .  S
C1601      C1602   1.410       .  A
C1601      C1606   1.403       .  A
C1602      C1603   1.402       .  A
C1602     Br1618   1.919       .  S
C1603      C1604   1.404       .  A
C1603      H1607   1.084       .  S
C1604      C1605   1.409       .  A
C1604      C1608   1.482       .  S
C1605      C1606   1.399       .  A
C1605     Br1617   1.919       .  S
C1606      H1609   1.084       .  S
C1608      C1610   1.402       .  A
C1608      C1614   1.409       .  A
C1610      C1611   1.399       .  A
C1610      H1615   1.084       .  S
C1611      C1612   1.412       .  A
C1611     Br1619   1.921       .  S
C1612      C1613   1.405       .  A
C1613      C1614   1.401       .  A
C1613      H1616   1.083       .  S
C1614     Br1620   1.918       .  S
C1621      C1622   1.413       .  A
C1621      C1626   1.405       .  A
C1622      C1623   1.402       .  A
C1622     Br1638   1.920       .  S
C1623      C1624   1.404       .  A
C1623      H1627   1.084       .  S
C1624      C1625   1.407       .  A
C1624      C1628   1.481       .  S
C1625      C1626   1.398       .  A
C1625     Br1637   1.918       .  S
C1626      H1629   1.084       .  S
C1628      C1630   1.402       .  A
C1628      C1634   1.407       .  A
C1630      C1631   1.400       .  A
C1630      H1635   1.083       .  S
C1631      C1632   1.414       .  A
C1631     Br1639   1.920   1_655  S
C1632      C1633   1.408       .  A
C1633      C1634   1.401       .  A
C1633      H1636   1.083       .  S
C1634     Br1640   1.918       .  S
C1641      C1642   1.406       .  A
C1641      C1646   1.401       .  A
C1642      C1643   1.398       .  A
C1642     Br1658   1.919       .  S
C1643      C1644   1.404       .  A
C1643      H1647   1.083       .  S
C1644      C1645   1.411       .  A
C1644      C1648   1.483       .  S
C1645      C1646   1.401       .  A
C1645     Br1657   1.919       .  S
C1646      H1649   1.083       .  S
C1648      C1650   1.404       .  A
C1648      C1654   1.411       .  A
C1650      C1651   1.399       .  A
C1650      H1655   1.083       .  S
C1651      C1652   1.408       .  A
C1651     Br1659   1.919       .  S
C1652      C1653   1.402       .  A
C1653      C1654   1.400       .  A
C1653      H1656   1.083       .  S
C1654     Br1660   1.920       .  S
C1661      C1662   1.407       .  A
C1661      C1666   1.402       .  A
C1662      C1663   1.399       .  A
C1662     Br1678   1.918       .  S
C1663      C1664   1.402       .  A
C1663      H1667   1.083       .  S
C1664      C1665   1.408       .  A
C1664      C1668   1.476       .  S
C1665      C1666   1.399       .  A
C1665     Br1677   1.918       .  S
C1666      H1669   1.083       .  S
C1668      C1670   1.401       .  A
C1668      C1674   1.408       .  A
C1670      C1671   1.397       .  A
C1670      H1675   1.083       .  S
C1671      C1672   1.408       .  A
C1671     Br1679   1.919       .  S
C1672      C1673   1.403       .  A
C1673      C1674   1.401       .  A
C1673      H1676   1.083       .  S
C1674     Br1680   1.917       .  S
C1681      C1682   1.409       .  A
C1681      C1686   1.404       .  A
C1682      C1683   1.399       .  A
C1682     Br1698   1.919       .  S
C1683      C1684   1.403       .  A
C1683      H1687   1.083       .  S
C1684      C1685   1.408       .  A
C1684      C1688   1.480       .  S
C1685      C1686   1.401       .  A
C1685     Br1697   1.918       .  S
C1686      H1689   1.083       .  S
C1688      C1690   1.403       .  A
C1688      C1694   1.407       .  A
C1690      C1691   1.402       .  A
C1690      H1695   1.083       .  S
C1691      C1692   1.412       .  A
C1691     Br1699   1.919       .  S
C1692      C1693   1.405       .  A
C1693      C1694   1.397       .  A
C1693      H1696   1.083       .  S
C1694     Br1700   1.919       .  S
C1701      C1702   1.411       .  A
C1701      C1706   1.405       .  A
C1702      C1703   1.399       .  A
C1702     Br1718   1.920       .  S
C1703      C1704   1.402       .  A
C1703      H1707   1.083       .  S
C1704      C1705   1.405       .  A
C1704      C1708   1.475       .  S
C1705      C1706   1.398       .  A
C1705     Br1717   1.918       .  S
C1706      H1709   1.083       .  S
C1708      C1710   1.402       .  A
C1708      C1714   1.405       .  A
C1710      C1711   1.398       .  A
C1710      H1715   1.084       .  S
C1711      C1712   1.410       .  A
C1711     Br1719   1.919       .  S
C1712      C1713   1.405       .  A
C1713      C1714   1.399       .  A
C1713      H1716   1.083       .  S
C1714     Br1720   1.917       .  S
C1721      C1722   1.409       .  A
C1721      C1726   1.403       .  A
C1722      C1723   1.400       .  A
C1722     Br1738   1.917       .  S
C1723      C1724   1.402       .  A
C1723      H1727   1.083       .  S
C1724      C1725   1.407       .  A
C1724      C1728   1.476       .  S
C1725      C1726   1.398       .  A
C1725     Br1737   1.919       .  S
C1726      H1729   1.084       .  S
C1728      C1730   1.402       .  A
C1728      C1734   1.407       .  A
C1730      C1731   1.399       .  A
C1730      H1735   1.083       .  S
C1731      C1732   1.409       .  A
C1731     Br1739   1.919       .  S
C1732      C1733   1.404       .  A
C1733      C1734   1.400       .  A
C1733      H1736   1.083       .  S
C1734     Br1740   1.918       .  S
C1741      C1742   1.411       .  A
C1741      C1746   1.404       .  A
C1742      C1743   1.403       .  A
C1742     Br1758   1.918       .  S
C1743      C1744   1.404       .  A
C1743      H1747   1.083       .  S
C1744      C1745   1.408       .  A
C1744      C1748   1.481       .  S
C1745      C1746   1.397       .  A
C1745     Br1757   1.919       .  S
C1746      H1749   1.084       .  S
C1748      C1750   1.402       .  A
C1748      C1754   1.408       .  A
C1750      C1751   1.399       .  A
C1750      H1755   1.083       .  S
C1751      C1752   1.412       .  A
C1751     Br1759   1.921       .  S
C1752      C1753   1.405       .  A
C1753      C1754   1.402       .  A
C1753      H1756   1.083       .  S
C1754     Br1760   1.918       .  S
C1761      C1762   1.411       .  A
C1761      C1766   1.406       .  A
C1762      C1763   1.399       .  A
C1762     Br1778   1.920       .  S
C1763      C1764   1.403       .  A
C1763      H1767   1.083       .  S
C1764      C1765   1.408       .  A
C1764      C1768   1.481       .  S
C1765      C1766   1.401       .  A
C1765     Br1777   1.918       .  S
C1766      H1769   1.083       .  S
C1768      C1770   1.404       .  A
C1768      C1774   1.408       .  A
C1770      C1771   1.402       .  A
C1770      H1775   1.083       .  S
C1771      C1772   1.412       .  A
C1771     Br1779   1.920       .  S
C1772      C1773   1.404       .  A
C1773      C1774   1.398       .  A
C1773      H1776   1.083       .  S
C1774     Br1780   1.919       .  S
C1781      C1782   1.418       .  A
C1781      C1786   1.408       .  A
C1782      C1783   1.402       .  A
C1782     Br1798   1.922       .  S
C1783      C1784   1.405       .  A
C1783      H1787   1.083       .  S
C1784      C1785   1.412       .  A
C1784      C1788   1.493       .  S
C1785      C1786   1.397       .  A
C1785     Br1797   1.923       .  S
C1786      H1789   1.082       .  S
C1788      C1790   1.404       .  A
C1788      C1794   1.412       .  A
C1790      C1791   1.400       .  A
C1790      H1795   1.083       .  S
C1791      C1792   1.418       .  A
C1791     Br1799   1.922       .  S
C1792      C1793   1.410       .  A
C1793      C1794   1.398       .  A
C1793      H1796   1.083       .  S
C1794     Br1800   1.922       .  S
C1801      C1802   1.414       .  A
C1801      C1806   1.407       .  A
C1802      C1803   1.399       .  A
C1802     Br1818   1.921       .  S
C1803      C1804   1.401       .  A
C1803      H1807   1.084       .  S
C1804      C1805   1.407       .  A
C1804      C1808   1.479       .  S
C1805      C1806   1.401       .  A
C1805     Br1817   1.918       .  S
C1806      H1809   1.084       .  S
C1808      C1810   1.400       .  A
C1808      C1814   1.407       .  A
C1810      C1811   1.399       .  A
C1810      H1815   1.084       .  S
C1811      C1812   1.415       .  A
C1811     Br1819   1.922       .  S
C1812      C1813   1.407       .  A
C1813      C1814   1.402       .  A
C1813      H1816   1.083       .  S
C1814     Br1820   1.918       .  S
C1821      C1822   1.410       .  A
C1821      C1826   1.403       .  A
C1822      C1823   1.399       .  A
C1822     Br1838   1.920       .  S
C1823      C1824   1.404       .  A
C1823      H1827   1.084       .  S
C1824      C1825   1.411       .  A
C1824      C1828   1.485       .  S
C1825      C1826   1.401       .  A
C1825     Br1837   1.919       .  S
C1826      H1829   1.084       .  S
C1828      C1830   1.404       .  A
C1828      C1834   1.408       .  A
C1830      C1831   1.403       .  A
C1830      H1835   1.084       .  S
C1831      C1832   1.414       .  A
C1831     Br1839   1.920       .  S
C1832      C1833   1.406       .  A
C1833      C1834   1.398       .  A
C1833      H1836   1.083       .  S
C1834     Br1840   1.920       .  S
C1841      C1842   1.411       .  A
C1841      C1846   1.404       .  A
C1842      C1843   1.403       .  A
C1842     Br1858   1.919       .  S
C1843      C1844   1.405       .  A
C1843      H1847   1.083       .  S
C1844      C1845   1.411       .  A
C1844      C1848   1.490       .  S
C1845      C1846   1.402       .  A
C1845     Br1857   1.919       .  S
C1846      H1849   1.083       .  S
C1848      C1850   1.405       .  A
C1848      C1854   1.410       .  A
C1850      C1851   1.403       .  A
C1850      H1855   1.083       .  S
C1851      C1852   1.412       .  A
C1851     Br1859   1.920       .  S
C1852      C1853   1.406       .  A
C1853      C1854   1.403       .  A
C1853      H1856   1.083       .  S
C1854     Br1860   1.918       .  S
C1861      C1862   1.410       .  A
C1861      C1866   1.404       .  A
C1862      C1863   1.398       .  A
C1862     Br1878   1.920       .  S
C1863      C1864   1.402       .  A
C1863      H1867   1.084       .  S
C1864      C1865   1.408       .  A
C1864      C1868   1.478       .  S
C1865      C1866   1.400       .  A
C1865     Br1877   1.918       .  S
C1866      H1869   1.084       .  S
C1868      C1870   1.403       .  A
C1868      C1874   1.407       .  A
C1870      C1871   1.400       .  A
C1870      H1875   1.084       .  S
C1871      C1872   1.411       .  A
C1871     Br1879   1.920       .  S
C1872      C1873   1.404       .  A
C1873      C1874   1.398       .  A
C1873      H1876   1.084       .  S
C1874     Br1880   1.919       .  S
C1881      C1882   1.413       .  A
C1881      C1886   1.407       .  A
C1882      C1883   1.401       .  A
C1882     Br1898   1.919       .  S
C1883      C1884   1.402       .  A
C1883      H1887   1.083       .  S
C1884      C1885   1.406       .  A
C1884      C1888   1.479       .  S
C1885      C1886   1.400       .  A
C1885     Br1897   1.918       .  S
C1886      H1889   1.083       .  S
C1888      C1890   1.402       .  A
C1888      C1894   1.407       .  A
C1890      C1891   1.403       .  A
C1890      H1895   1.083       .  S
C1891      C1892   1.414       .  A
C1891     Br1899   1.920       .  S
C1892      C1893   1.406       .  A
C1893      C1894   1.398       .  A
C1893      H1896   1.083       .  S
C1894     Br1900   1.919       .  S
C1901      C1902   1.407       .  A
C1901      C1906   1.402       .  A
C1902      C1903   1.398       .  A
C1902     Br1918   1.918       .  S
C1903      C1904   1.402       .  A
C1903      H1907   1.083       .  S
C1904      C1905   1.408       .  A
C1904      C1908   1.475       .  S
C1905      C1906   1.401       .  A
C1905     Br1917   1.918       .  S
C1906      H1909   1.083       .  S
C1908      C1910   1.400       .  A
C1908      C1914   1.408       .  A
C1910      C1911   1.396       .  A
C1910      H1915   1.084       .  S
C1911      C1912   1.408       .  A
C1911     Br1919   1.916       .  S
C1912      C1913   1.404       .  A
C1913      C1914   1.402       .  A
C1913      H1916   1.083       .  S
C1914     Br1920   1.917       .  S
C1921      C1922   1.410       .  A
C1921      C1926   1.404       .  A
C1922      C1923   1.401       .  A
C1922     Br1938   1.919       .  S
C1923      C1924   1.403       .  A
C1923      H1927   1.083       .  S
C1924      C1925   1.410       .  A
C1924      C1928   1.485       .  S
C1925      C1926   1.402       .  A
C1925     Br1937   1.919       .  S
C1926      H1929   1.083       .  S
C1928      C1930   1.403       .  A
C1928      C1934   1.410       .  A
C1930      C1931   1.401       .  A
C1930      H1935   1.083       .  S
C1931      C1932   1.413       .  A
C1931     Br1939   1.921       .  S
C1932      C1933   1.405       .  A
C1933      C1934   1.402       .  A
C1933      H1936   1.083       .  S
C1934     Br1940   1.918       .  S
C1941      C1942   1.414       .  A
C1941      C1946   1.407       .  A
C1942      C1943   1.402       .  A
C1942     Br1958   1.919       .  S
C1943      C1944   1.401       .  A
C1943      H1947   1.083       .  S
C1944      C1945   1.406       .  A
C1944      C1948   1.478       .  S
C1945      C1946   1.398       .  A
C1945     Br1957   1.919       .  S
C1946      H1949   1.083       .  S
C1948      C1950   1.400       .  A
C1948      C1954   1.408       .  A
C1950      C1951   1.400       .  A
C1950      H1955   1.083       .  S
C1951      C1952   1.412       .  A
C1951     Br1959   1.917       .  S
C1952      C1953   1.404       .  A
C1953      C1954   1.401       .  A
C1953      H1956   1.083       .  S
C1954     Br1960   1.918       .  S
C1961      C1962   1.411       .  A
C1961      C1966   1.404       .  A
C1962      C1963   1.400       .  A
C1962     Br1978   1.917       .  S
C1963      C1964   1.401       .  A
C1963      H1967   1.083       .  S
C1964      C1965   1.408       .  A
C1964      C1968   1.477       .  S
C1965      C1966   1.400       .  A
C1965     Br1977   1.918       .  S
C1966      H1969   1.083       .  S
C1968      C1970   1.400       .  A
C1968      C1974   1.407       .  A
C1970      C1971   1.398       .  A
C1970      H1975   1.083       .  S
C1971      C1972   1.411       .  A
C1971     Br1979   1.917       .  S
C1972      C1973   1.404       .  A
C1973      C1974   1.402       .  A
C1973      H1976   1.083       .  S
C1974     Br1980   1.918       .  S
C1981      C1982   1.414       .  A
C1981      C1986   1.406       .  A
C1982      C1983   1.402       .  A
C1982     Br1998   1.920       .  S
C1983      C1984   1.402       .  A
C1983      H1987   1.083       .  S
C1984      C1985   1.408       .  A
C1984      C1988   1.481       .  S
C1985      C1986   1.399       .  A
C1985     Br1997   1.919       .  S
C1986      H1989   1.083       .  S
C1988      C1990   1.402       .  A
C1988      C1994   1.407       .  A
C1990      C1991   1.402       .  A
C1990      H1995   1.083       .  S
C1991      C1992   1.414       .  A
C1991     Br1999   1.921       .  S
C1992      C1993   1.406       .  A
C1993      C1994   1.399       .  A
C1993      H1996   1.083       .  S
C1994     Br2000   1.919       .  S
C2001      C2002   1.412       .  A
C2001      C2006   1.406       .  A
C2002      C2003   1.402       .  A
C2002     Br2018   1.920       .  S
C2003      C2004   1.403       .  A
C2003      H2007   1.083       .  S
C2004      C2005   1.406       .  A
C2004      C2008   1.481       .  S
C2005      C2006   1.401       .  A
C2005     Br2017   1.918       .  S
C2006      H2009   1.083       .  S
C2008      C2010   1.400       .  A
C2008      C2014   1.407       .  A
C2010      C2011   1.399       .  A
C2010      H2015   1.084       .  S
C2011      C2012   1.414       .  A
C2011     Br2019   1.921       .  S
C2012      C2013   1.407       .  A
C2013      C2014   1.404       .  A
C2013      H2016   1.083       .  S
C2014     Br2020   1.917       .  S
C2021      C2022   1.409       .  A
C2021      C2026   1.403       .  A
C2022      C2023   1.401       .  A
C2022     Br2038   1.919       .  S
C2023      C2024   1.403       .  A
C2023      H2027   1.083       .  S
C2024      C2025   1.407       .  A
C2024      C2028   1.477       .  S
C2025      C2026   1.398       .  A
C2025     Br2037   1.918       .  S
C2026      H2029   1.083       .  S
C2028      C2030   1.402       .  A
C2028      C2034   1.406       .  A
C2030      C2031   1.400       .  A
C2030      H2035   1.083       .  S
C2031      C2032   1.411       .  A
C2031     Br2039   1.919       .  S
C2032      C2033   1.405       .  A
C2033      C2034   1.401       .  A
C2033      H2036   1.083       .  S
C2034     Br2040   1.917       .  S
C2041      C2042   1.412       .  A
C2041      C2046   1.405       .  A
C2042      C2043   1.399       .  A
C2042     Br2058   1.920       .  S
C2043      C2044   1.403       .  A
C2043      H2047   1.083       .  S
C2044      C2045   1.410       .  A
C2044      C2048   1.484       .  S
C2045      C2046   1.401       .  A
C2045     Br2057   1.919       .  S
C2046      H2049   1.083       .  S
C2048      C2050   1.402       .  A
C2048      C2054   1.409       .  A
C2050      C2051   1.400       .  A
C2050      H2055   1.084       .  S
C2051      C2052   1.415       .  A
C2051     Br2059   1.918       .  S
C2052      C2053   1.407       .  A
C2053      C2054   1.400       .  A
C2053      H2056   1.083       .  S
C2054     Br2060   1.920       .  S
C2061      C2062   1.409       .  A
C2061      C2066   1.402       .  A
C2062      C2063   1.402       .  A
C2062     Br2078   1.918       .  S
C2063      C2064   1.405       .  A
C2063      H2067   1.083       .  S
C2064      C2065   1.410       .  A
C2064      C2068   1.484       .  S
C2065      C2066   1.398       .  A
C2065     Br2077   1.920       .  S
C2066      H2069   1.084       .  S
C2068      C2070   1.404       .  A
C2068      C2074   1.410       .  A
C2070      C2071   1.400       .  A
C2070      H2075   1.083       .  S
C2071      C2072   1.410       .  A
C2071     Br2079   1.920       .  S
C2072      C2073   1.404       .  A
C2073      C2074   1.400       .  A
C2073      H2076   1.083       .  S
C2074     Br2080   1.919       .  S
C2081      C2082   1.410       .  A
C2081      C2086   1.403       .  A
C2082      C2083   1.398       .  A
C2082     Br2098   1.920       .  S
C2083      C2084   1.401       .  A
C2083      H2087   1.083       .  S
C2084      C2085   1.408       .  A
C2084      C2088   1.476       .  S
C2085      C2086   1.400       .  A
C2085     Br2097   1.918       .  S
C2086      H2089   1.083       .  S
C2088      C2090   1.402       .  A
C2088      C2094   1.407       .  A
C2090      C2091   1.399       .  A
C2090      H2095   1.083       .  S
C2091      C2092   1.411       .  A
C2091     Br2099   1.920       .  S
C2092      C2093   1.403       .  A
C2093      C2094   1.399       .  A
C2093      H2096   1.084       .  S
C2094     Br2100   1.919       .  S
C2101      C2102   1.413       .  A
C2101      C2106   1.405       .  A
C2102      C2103   1.398       .  A
C2102     Br2118   1.921       .  S
C2103      C2104   1.401       .  A
C2103      H2107   1.083       .  S
C2104      C2105   1.409       .  A
C2104      C2108   1.481       .  S
C2105      C2106   1.402       .  A
C2105     Br2117   1.918       .  S
C2106      H2109   1.083       .  S
C2108      C2110   1.403       .  A
C2108      C2114   1.408       .  A
C2110      C2111   1.402       .  A
C2110      H2115   1.083       .  S
C2111      C2112   1.413       .  A
C2111     Br2119   1.920       .  S
C2112      C2113   1.405       .  A
C2113      C2114   1.399       .  A
C2113      H2116   1.084       .  S
C2114     Br2120   1.919       .  S
C2121      C2122   1.410       .  A
C2121      C2126   1.404       .  A
C2122      C2123   1.396       .  A
C2122     Br2138   1.920       .  S
C2123      C2124   1.400       .  A
C2123      H2127   1.084       .  S
C2124      C2125   1.407       .  A
C2124      C2128   1.473       .  S
C2125      C2126   1.401       .  A
C2125     Br2137   1.917       .  S
C2126      H2129   1.083       .  S
C2128      C2130   1.403       .  A
C2128      C2134   1.406       .  A
C2130      C2131   1.400       .  A
C2130      H2135   1.083       .  S
C2131      C2132   1.408       .  A
C2131     Br2139   1.918       .  S
C2132      C2133   1.403       .  A
C2133      C2134   1.396       .  A
C2133      H2136   1.084       .  S
C2134     Br2140   1.919       .  S
C2141      C2142   1.417       .  A
C2141      C2146   1.409       .  A
C2142      C2143   1.395       .  A
C2142     Br2158   1.925       .  S
C2143      C2144   1.403       .  A
C2143      H2147   1.083       .  S
C2144      C2145   1.413       .  A
C2144      C2148   1.493       .  S
C2145      C2146   1.404       .  A
C2145     Br2157   1.920       .  S
C2146      H2149   1.083       .  S
C2148      C2150   1.405       .  A
C2148      C2154   1.410       .  A
C2150      C2151   1.404       .  A
C2150      H2155   1.082       .  S
C2151      C2152   1.420       .  A
C2151     Br2159   1.923       .  S
C2152      C2153   1.410       .  A
C2153      C2154   1.394       .  A
C2153      H2156   1.081       .  S
C2154     Br2160   1.924       .  S
C2161      C2162   1.411       .  A
C2161      C2166   1.406       .  A
C2162      C2163   1.398       .  A
C2162     Br2178   1.920       .  S
C2163      C2164   1.401       .  A
C2163      H2167   1.083       .  S
C2164      C2165   1.408       .  A
C2164      C2168   1.480       .  S
C2165      C2166   1.402       .  A
C2165     Br2177   1.918       .  S
C2166      H2169   1.083       .  S
C2168      C2170   1.403       .  A
C2168      C2174   1.407       .  A
C2170      C2171   1.401       .  A
C2170      H2175   1.083       .  S
C2171      C2172   1.411       .  A
C2171     Br2179   1.919       .  S
C2172      C2173   1.405       .  A
C2173      C2174   1.399       .  A
C2173      H2176   1.083       .  S
C2174     Br2180   1.918       .  S
C2181      C2182   1.413       .  A
C2181      C2186   1.406       .  A
C2182      C2183   1.399       .  A
C2182     Br2198   1.920       .  S
C2183      C2184   1.402       .  A
C2183      H2187   1.084       .  S
C2184      C2185   1.408       .  A
C2184      C2188   1.480       .  S
C2185      C2186   1.400       .  A
C2185     Br2197   1.918       .  S
C2186      H2189   1.083       .  S
C2188      C2190   1.402       .  A
C2188      C2194   1.408       .  A
C2190      C2191   1.401       .  A
C2190      H2195   1.083       .  S
C2191      C2192   1.412       .  A
C2191     Br2199   1.919       .  S
C2192      C2193   1.405       .  A
C2193      C2194   1.399       .  A
C2193      H2196   1.083       .  S
C2194     Br2200   1.919       .  S
C2201      C2202   1.410       .  A
C2201      C2206   1.404       .  A
C2202      C2203   1.399       .  A
C2202     Br2218   1.920       .  S
C2203      C2204   1.403       .  A
C2203      H2207   1.083       .  S
C2204      C2205   1.407       .  A
C2204      C2208   1.479       .  S
C2205      C2206   1.401       .  A
C2205     Br2217   1.917       .  S
C2206      H2209   1.083       .  S
C2208      C2210   1.402       .  A
C2208      C2214   1.408       .  A
C2210      C2211   1.401       .  A
C2210      H2215   1.083       .  S
C2211      C2212   1.412       .  A
C2211     Br2219   1.919       .  S
C2212      C2213   1.405       .  A
C2213      C2214   1.399       .  A
C2213      H2216   1.083       .  S
C2214     Br2220   1.919       .  S
C2221      C2222   1.411       .  A
C2221      C2226   1.405       .  A
C2222      C2223   1.399       .  A
C2222     Br2238   1.920       .  S
C2223      C2224   1.403       .  A
C2223      H2227   1.084       .  S
C2224      C2225   1.408       .  A
C2224      C2228   1.480       .  S
C2225      C2226   1.399       .  A
C2225     Br2237   1.919       .  S
C2226      H2229   1.084       .  S
C2228      C2230   1.401       .  A
C2228      C2234   1.407       .  A
C2230      C2231   1.399       .  A
C2230      H2235   1.084       .  S
C2231      C2232   1.414       .  A
C2231     Br2239   1.921       .  S
C2232      C2233   1.406       .  A
C2233      C2234   1.400       .  A
C2233      H2236   1.083       .  S
C2234     Br2240   1.919       .  S
C2241      C2242   1.408       .  A
C2241      C2246   1.403       .  A
C2242      C2243   1.396       .  A
C2242     Br2258   1.920       .  S
C2243      C2244   1.401       .  A
C2243      H2247   1.084       .  S
C2244      C2245   1.407       .  A
C2244      C2248   1.473       .  S
C2245      C2246   1.400       .  A
C2245     Br2257   1.917       .  S
C2246      H2249   1.083       .  S
C2248      C2250   1.402       .  A
C2248      C2254   1.407       .  A
C2250      C2251   1.398       .  A
C2250      H2255   1.084       .  S
C2251      C2252   1.408       .  A
C2251     Br2259   1.919       .  S
C2252      C2253   1.402       .  A
C2253      C2254   1.398       .  A
C2253      H2256   1.084       .  S
C2254     Br2260   1.918       .  S
C2261      C2262   1.410       .  A
C2261      C2266   1.404       .  A
C2262      C2263   1.399       .  A
C2262     Br2278   1.919       .  S
C2263      C2264   1.402       .  A
C2263      H2267   1.083       .  S
C2264      C2265   1.408       .  A
C2264      C2268   1.478       .  S
C2265      C2266   1.400       .  A
C2265     Br2277   1.918       .  S
C2266      H2269   1.083       .  S
C2268      C2270   1.402       .  A
C2268      C2274   1.408       .  A
C2270      C2271   1.398       .  A
C2270      H2275   1.084       .  S
C2271      C2272   1.409       .  A
C2271     Br2279   1.919       .  S
C2272      C2273   1.404       .  A
C2273      C2274   1.401       .  A
C2273      H2276   1.083       .  S
C2274     Br2280   1.918       .  S
C2281      C2282   1.413       .  A
C2281      C2286   1.406       .  A
C2282      C2283   1.400       .  A
C2282     Br2298   1.921       .  S
C2283      C2284   1.402       .  A
C2283      H2287   1.084       .  S
C2284      C2285   1.409       .  A
C2284      C2288   1.482       .  S
C2285      C2286   1.400       .  A
C2285     Br2297   1.919       .  S
C2286      H2289   1.084       .  S
C2288      C2290   1.401       .  A
C2288      C2294   1.408       .  A
C2290      C2291   1.401       .  A
C2290      H2295   1.084       .  S
C2291      C2292   1.416       .  A
C2291     Br2299   1.921       .  S
C2292      C2293   1.408       .  A
C2293      C2294   1.401       .  A
C2293      H2296   1.084       .  S
C2294     Br2300   1.920       .  S
C2301      C2302   1.408       .  A
C2301      C2306   1.403       .  A
C2302      C2303   1.395       .  A
C2302     Br2318   1.920       .  S
C2303      C2304   1.402       .  A
C2303      H2307   1.083       .  S
C2304      C2305   1.409       .  A
C2304      C2308   1.478       .  S
C2305      C2306   1.401       .  A
C2305     Br2317   1.918       .  S
C2306      H2309   1.083       .  S
C2308      C2310   1.403       .  A
C2308      C2314   1.408       .  A
C2310      C2311   1.400       .  A
C2310      H2315   1.083       .  S
C2311      C2312   1.411       .  A
C2311     Br2319   1.920       .  S
C2312      C2313   1.403       .  A
C2313      C2314   1.396       .  A
C2313      H2316   1.084       .  S
C2314     Br2320   1.920       .  S
C2321      C2322   1.413       .  A
C2321      C2326   1.405       .  A
C2322      C2323   1.405       .  A
C2322     Br2338   1.919       .  S
C2323      C2324   1.405       .  A
C2323      H2327   1.083       .  S
C2324      C2325   1.408       .  A
C2324      C2328   1.486       .  S
C2325      C2326   1.398       .  A
C2325     Br2337   1.919       .  S
C2326      H2329   1.084       .  S
C2328      C2330   1.402       .  A
C2328      C2334   1.409       .  A
C2330      C2331   1.401       .  A
C2330      H2335   1.083       .  S
C2331      C2332   1.414       .  A
C2331     Br2339   1.920       .  S
C2332      C2333   1.407       .  A
C2333      C2334   1.404       .  A
C2333      H2336   1.083       .  S
C2334     Br2340   1.919       .  S
C2341      C2342   1.410       .  A
C2341      C2346   1.404       .  A
C2342      C2343   1.400       .  A
C2342     Br2358   1.919       .  S
C2343      C2344   1.403       .  A
C2343      H2347   1.083       .  S
C2344      C2345   1.408       .  A
C2344      C2348   1.480       .  S
C2345      C2346   1.401       .  A
C2345     Br2357   1.918       .  S
C2346      H2349   1.083       .  S
C2348      C2350   1.403       .  A
C2348      C2354   1.407       .  A
C2350      C2351   1.401       .  A
C2350      H2355   1.083       .  S
C2351      C2352   1.412       .  A
C2351     Br2359   1.920       .  S
C2352      C2353   1.405       .  A
C2353      C2354   1.400       .  A
C2353      H2356   1.083   1_655  S
C2354     Br2360   1.918       .  S
C2361      C2362   1.409       .  A
C2361      C2366   1.401       .  A
C2362      C2363   1.401       .  A
C2362     Br2378   1.918       .  S
C2363      C2364   1.403       .  A
C2363      H2367   1.083       .  S
C2364      C2365   1.409       .  A
C2364      C2368   1.480       .  S
C2365      C2366   1.399       .  A
C2365     Br2377   1.919       .  S
C2366      H2369   1.083       .  S
C2368      C2370   1.403       .  A
C2368      C2374   1.410       .  A
C2370      C2371   1.399       .  A
C2370      H2375   1.084       .  S
C2371      C2372   1.408       .  A
C2371     Br2379   1.919       .  S
C2372      C2373   1.402       .  A
C2373      C2374   1.400       .  A
C2373      H2376   1.084       .  S
C2374     Br2380   1.918       .  S
C2381      C2382   1.408       .  A
C2381      C2386   1.403       .  A
C2382      C2383   1.397       .  A
C2382     Br2398   1.919       .  S
C2383      C2384   1.401       .  A
C2383      H2387   1.083       .  S
C2384      C2385   1.408       .  A
C2384      C2388   1.476       .  S
C2385      C2386   1.401       .  A
C2385     Br2397   1.917       .  S
C2386      H2389   1.083       .  S
C2388      C2390   1.403       .  A
C2388      C2394   1.406       .  A
C2390      C2391   1.401       .  A
C2390      H2395   1.083       .  S
C2391      C2392   1.411       .  A
C2391     Br2399   1.919       .  S
C2392      C2393   1.404       .  A
C2393      C2394   1.397       .  A
C2393      H2396   1.084       .  S
C2394     Br2400   1.919       .  S
C2401      C2402   1.409       .  A
C2401      C2406   1.403       .  A
C2402      C2403   1.398       .  A
C2402     Br2418   1.920   1_655  S
C2403      C2404   1.402       .  A
C2403      H2407   1.083       .  S
C2404      C2405   1.408       .  A
C2404      C2408   1.477       .  S
C2405      C2406   1.401       .  A
C2405     Br2417   1.918       .  S
C2406      H2409   1.083       .  S
C2408      C2410   1.404       .  A
C2408      C2414   1.407       .  A
C2410      C2411   1.402       .  A
C2410      H2415   1.083       .  S
C2411      C2412   1.408       .  A
C2411     Br2419   1.917       .  S
C2412      C2413   1.403       .  A
C2413      C2414   1.396       .  A
C2413      H2416   1.084       .  S
C2414     Br2420   1.919       .  S
C2421      C2422   1.418       .  A
C2421      C2426   1.408       .  A
C2422      C2423   1.401       .  A
C2422     Br2438   1.923       .  S
C2423      C2424   1.404       .  A
C2423      H2427   1.084       .  S
C2424      C2425   1.411       .  A
C2424      C2428   1.490       .  S
C2425      C2426   1.397       .  A
C2425     Br2437   1.922       .  S
C2426      H2429   1.083       .  S
C2428      C2430   1.404       .  A
C2428      C2434   1.410       .  A
C2430      C2431   1.401       .  A
C2430      H2435   1.084       .  S
C2431      C2432   1.418       .  A
C2431     Br2439   1.922       .  S
C2432      C2433   1.409       .  A
C2433      C2434   1.397       .  A
C2433      H2436   1.083       .  S
C2434     Br2440   1.922       .  S
C2441      C2442   1.410       .  A
C2441      C2446   1.404       .  A
C2442      C2443   1.399       .  A
C2442     Br2458   1.919       .  S
C2443      C2444   1.402       .  A
C2443      H2447   1.083       .  S
C2444      C2445   1.406       .  A
C2444      C2448   1.475       .  S
C2445      C2446   1.399       .  A
C2445     Br2457   1.918       .  S
C2446      H2449   1.083       .  S
C2448      C2450   1.402       .  A
C2448      C2454   1.406       .  A
C2450      C2451   1.399       .  A
C2450      H2455   1.083       .  S
C2451      C2452   1.410       .  A
C2451     Br2459   1.919       .  S
C2452      C2453   1.405       .  A
C2453      C2454   1.400       .  A
C2453      H2456   1.083       .  S
C2454     Br2460   1.918       .  S
C2461      C2462   1.410       .  A
C2461      C2466   1.404       .  A
C2462      C2463   1.399       .  A
C2462     Br2478   1.919       .  S
C2463      C2464   1.401       .  A
C2463      H2467   1.084       .  S
C2464      C2465   1.407       .  A
C2464      C2468   1.475       .  S
C2465      C2466   1.399       .  A
C2465     Br2477   1.917       .  S
C2466      H2469   1.084       .  S
C2468      C2470   1.401       .  A
C2468      C2474   1.406       .  A
C2470      C2471   1.400       .  A
C2470      H2475   1.083       .  S
C2471      C2472   1.412       .  A
C2471     Br2479   1.920       .  S
C2472      C2473   1.405       .  A
C2473      C2474   1.399       .  A
C2473      H2476   1.083       .  S
C2474     Br2480   1.918       .  S
C2481      C2482   1.416       .  A
C2481      C2486   1.410       .  A
C2482      C2483   1.403       .  A
C2482     Br2498   1.921       .  S
C2483      C2484   1.406       .  A
C2483      H2487   1.082       .  S
C2484      C2485   1.412       .  A
C2484      C2488   1.496       .  S
C2485      C2486   1.397       .  A
C2485     Br2497   1.924       .  S
C2486      H2489   1.081       .  S
C2488      C2490   1.404       .  A
C2488      C2494   1.413       .  A
C2490      C2491   1.397       .  A
C2490      H2495   1.084       .  S
C2491      C2492   1.418       .  A
C2491     Br2499   1.925       .  S
C2492      C2493   1.409       .  A
C2493      C2494   1.401       .  A
C2493      H2496   1.085       .  S
C2494     Br2500   1.921       .  S
C2501      C2502   1.413       .  A
C2501      C2506   1.405       .  A
C2502      C2503   1.396       .  A
C2502     Br2518   1.921       .  S
C2503      C2504   1.399       .  A
C2503      H2507   1.085       .  S
C2504      C2505   1.408       .  A
C2504      C2508   1.476       .  S
C2505      C2506   1.401       .  A
C2505     Br2517   1.917       .  S
C2506      H2509   1.084       .  S
C2508      C2510   1.403       .  A
C2508      C2514   1.408       .  A
C2510      C2511   1.402       .  A
C2510      H2515   1.083       .  S
C2511      C2512   1.410       .  A
C2511     Br2519   1.918       .  S
C2512      C2513   1.403       .  A
C2513      C2514   1.397       .  A
C2513      H2516   1.084       .  S
C2514     Br2520   1.920       .  S
