geometry optimzed in LAMMPS
_audit_creation_date              2020-11-30 
_audit_creation_method            'lammps2cif' 
_symmetry_space_group_name_H-M    'P1' 
_symmetry_Int_Tables_number       1 
_symmetry_cell_setting            triclinic 
loop_ 
_symmetry_equiv_pos_as_xyz 
  x,y,z 
_cell_length_a                    50.76627965 
_cell_length_b                    33.3478833147275 
_cell_length_c                    32.15416019222154 
_cell_angle_alpha                 90.00781718032982 
_cell_angle_beta                  90.00334615735497 
_cell_angle_gamma                 91.74087582114689 
loop_ 
_atom_site_label 
_atom_site_type_symbol 
_atom_site_fract_x 
_atom_site_fract_y 
_atom_site_fract_z 
_atom_site_charge 
N1          N  0.55456093  0.02148573  0.23860334    -0.25800
N2          N  0.54098596  0.02043114  0.20348332    -0.33600
C3          C  0.55781284  0.02235999  0.17119218     0.02600
C4          C  0.58312281  0.02478767  0.18676796     0.08600
C5          C  0.58047572  0.02408622  0.22954162    -0.04500
H6          H  0.55202934  0.02123366  0.13882051     0.09300
H7          H  0.59615394  0.02468276  0.25234703     0.10500
Cu8        Cu  0.50027627  0.51436733  0.20079956     0.44200
Cu9        Cu  0.53681014  0.01797205  0.29687327     0.42000
Cu10       Cu  0.46482376  0.50471999  0.29763723     0.43900
N11         N  0.45975680  0.50555481  0.20434017    -0.33200
N12         N  0.44658567  0.50175865  0.23969018    -0.27400
C13         C  0.42078456  0.49568590  0.23106181    -0.03500
C14         C  0.41780237  0.49575789  0.18832688     0.08700
C15         C  0.44278891  0.50202812  0.17234597     0.02500
H16         H  0.40544959  0.49132647  0.25412886     0.10100
H17         H  0.44830523  0.50360725  0.13987494     0.09200
N18         N  0.48804772  0.00914769  0.35090640    -0.34600
N19         N  0.51404584  0.01393530  0.35063258    -0.26800
C20         C  0.52279176  0.01571600  0.39014733    -0.02000
C21         C  0.50131055  0.01187571  0.41630848     0.06600
C22         C  0.47962267  0.00776906  0.39060242     0.04700
H23         H  0.54326981  0.01951369  0.39909006     0.09800
H24         H  0.45922127  0.50404261  0.39997849     0.08600
N25         N  0.44663255  0.50087623  0.80162447    -0.25800
N26         N  0.45980772  0.50451833  0.83698799    -0.33600
C27         C  0.44282959  0.50104814  0.86896732     0.02600
C28         C  0.41783197  0.49497805  0.85296062     0.08600
C29         C  0.42081686  0.49496360  0.81022773    -0.04500
H30         H  0.44834323  0.50256620  0.90144476     0.09300
H31         H  0.40547143  0.49078174  0.78714478     0.10500
Cu32       Cu  0.50033110  0.51317141  0.84056054     0.44200
Cu33       Cu  0.46487949  0.50389715  0.74369748     0.42000
Cu34       Cu  0.53687950  0.01697294  0.74451552     0.43900
N35         N  0.54103107  0.01931247  0.83791222    -0.33200
N36         N  0.55461568  0.02044899  0.80280539    -0.27400
C37         C  0.58052386  0.02317985  0.81189628    -0.03500
C38         C  0.58315265  0.02387915  0.85467350     0.08700
C39         C  0.55784221  0.02131582  0.87022161     0.02500
H40         H  0.59621106  0.02390358  0.78910682     0.10100
H41         H  0.55204741  0.02018854  0.90258882     0.09200
N42         N  0.51411283  0.01309732  0.69074029    -0.34600
N43         N  0.48811008  0.00838463  0.69045169    -0.26800
C44         C  0.47968022  0.00716726  0.65075413    -0.02000
C45         C  0.50136788  0.01129889  0.62505923     0.06600
C46         C  0.52285635  0.01498788  0.65123002     0.04700
H47         H  0.45927226  0.50355850  0.64136874     0.09800
H48         H  0.54333436  0.01878633  0.64229751     0.08600
C49         C  0.21921641  0.17116166  0.02047536     0.88000
C50         C  0.20086403  0.17307006  0.05828834    -0.52200
C51         C  0.18527594  0.20565589  0.05813243     0.10900
C52         C  0.18951729  0.23345927  0.02039115     0.21900
C53         C  0.20092098  0.17303305  0.98258851    -0.53000
C54         C  0.18533019  0.20561633  0.98265669     0.11000
C55         C  0.23488015  0.21121726  0.02049242    -0.52500
C56         C  0.21929438  0.24387436  0.02045109     0.11600
H57         H  0.19979660  0.15022274  0.08237813     0.16100
H58         H  0.17675580  0.25996123  0.02035720     0.01900
H59         H  0.19988102  0.15015157  0.95852506     0.16400
H60         H  0.25628010  0.21355382  0.02054813     0.16200
C61         C  0.28297594  0.42399743  0.02067167     0.88000
C62         C  0.30127262  0.42799095  0.98276480    -0.52200
C63         C  0.31652283  0.46239450  0.98286688     0.10900
C64         C  0.31208014  0.98965334  0.02062644     0.21900
C65         C  0.30129787  0.42802918  0.05855321    -0.53000
C66         C  0.31654785  0.46243594  0.05840448     0.11000
C67         C  0.26696815  0.46229428  0.02066745    -0.52500
C68         C  0.28227352  0.99666836  0.02064367     0.11600
H69         H  0.30240268  0.40540849  0.95852163     0.16100
H70         H  0.32455200  0.01763695  0.02060529     0.01900
H71         H  0.30243962  0.40547350  0.08281779     0.16400
H72         H  0.24556314  0.46224947  0.02067838     0.16200
N73         N  0.05402787  0.21889712  0.23913756    -0.25800
N74         N  0.04056407  0.22033055  0.20398688    -0.33600
C75         C  0.05739452  0.21940183  0.17174820     0.02600
C76         C  0.08259845  0.21731705  0.18740228     0.08600
C77         C  0.07989078  0.21701638  0.23017021    -0.04500
H78         H  0.05166971  0.22030815  0.13935526     0.09300
H79         H  0.09547641  0.21564231  0.25303955     0.10500
Cu80       Cu  0.99995007  0.22362584  0.20132234     0.44200
Cu81       Cu  0.03603502  0.21958128  0.29718440     0.42000
Cu82       Cu  0.96380735  0.22403599  0.29785619     0.43900
N83         N  0.95932772  0.22641734  0.20460878    -0.33200
N84         N  0.94588024  0.22659300  0.23984017    -0.27400
C85         C  0.92002401  0.22899115  0.23102324    -0.03500
C86         C  0.91731367  0.23031570  0.18828820     0.08700
C87         C  0.94249327  0.22868059  0.17249350     0.02500
H88         H  0.90447294  0.23001866  0.25397297     0.10100
H89         H  0.94822844  0.22941944  0.14008793     0.09200
N90         N  0.98701348  0.22095747  0.35096780    -0.34600
N91         N  0.01305763  0.21944456  0.35070273    -0.26800
C92         C  0.02176838  0.21765732  0.39017082    -0.02000
C93         C  0.00021555  0.21803889  0.41626225     0.06600
C94         C  0.97851838  0.22015741  0.39061945     0.04700
H95         H  0.04227171  0.21622825  0.39911872     0.09800
H96         H  0.95807197  0.22111909  0.40000106     0.08600
N97         N  0.94585316  0.22645003  0.80110767    -0.25800
N98         N  0.95930807  0.22613478  0.83633135    -0.33600
C99         C  0.94248716  0.22841846  0.86846085     0.02600
C100        C  0.91730887  0.23021342  0.85268697     0.08600
C101        C  0.92000605  0.22896117  0.80994540    -0.04500
H102        H  0.94823242  0.22906391  0.90086911     0.09300
H103        H  0.90445601  0.23011140  0.78701150     0.08900
Cu104      Cu  0.99992682  0.22315198  0.83959384     0.44200
Cu105      Cu  0.96375449  0.22391123  0.74306808     0.42000
Cu106      Cu  0.03597078  0.21911659  0.74372120     0.43900
N107        N  0.04054175  0.21979895  0.83690706    -0.33200
N108        N  0.05398932  0.21837384  0.80174370    -0.27400
C109        C  0.07985876  0.21651346  0.81068015    -0.03500
C110        C  0.08258825  0.21681763  0.85344557     0.08700
C111        C  0.05739025  0.21888462  0.86912775     0.02500
H112        H  0.09543057  0.21517750  0.78779798     0.10100
H113        H  0.05168351  0.21981682  0.90152631     0.09200
N114        N  0.01298750  0.21912465  0.69021407    -0.34600
N115        N  0.98694893  0.22076937  0.68994704    -0.26800
C116        C  0.97845600  0.22005553  0.65029112    -0.02000
C117        C  0.00014864  0.21785486  0.62465090     0.06600
C118        C  0.02169515  0.21733619  0.65074765     0.04700
H119        H  0.95801273  0.22113759  0.64090338     0.09800
H120        H  0.04219681  0.21582230  0.64180257     0.08600
C121        C  0.78433202  0.29523432  0.02051074     0.88000
C122        C  0.80253221  0.29176002  0.05838933    -0.52200
C123        C  0.81682653  0.25777906  0.05823272     0.10900
C124        C  0.81162483  0.23040574  0.02047529     0.21900
C125        C  0.80252172  0.29178138  0.98261550    -0.53000
C126        C  0.81681787  0.25779813  0.98273659     0.11000
C127        C  0.76725661  0.25645504  0.02050015    -0.52500
C128        C  0.78161801  0.22251072  0.02048370     0.11600
H129        H  0.80429502  0.31436741  0.08265387     0.16100
H130        H  0.82334579  0.20278320  0.02046352     0.01900
H131        H  0.80428046  0.31440362  0.95837614     0.16400
H132        H  0.74584036  0.25588102  0.02051968     0.16200
C133        C  0.71719099  0.46762404  0.02084522     0.88000
C134        C  0.69909737  0.47205201  0.05871702    -0.52200
C135        C  0.68553895  0.50675715  0.05855829     0.10900
C136        C  0.69136203  0.03388397  0.02079561     0.21900
C137        C  0.69908416  0.47198170  0.98298325    -0.53000
C138        C  0.68552619  0.50668169  0.98308756     0.11000
C139        C  0.73510015  0.50551725  0.02080562    -0.52500
C140        C  0.72152695  0.04021727  0.02077889     0.11600
H141        H  0.69670163  0.44939116  0.08281431     0.16100
H142        H  0.68025543  0.06210477  0.02077124     0.01900
H143        H  0.69668034  0.44927347  0.95892189     0.16400
H144        H  0.75649246  0.50496934  0.02079048     0.16200
C145        C  0.73458227  0.07931723  0.02071334    -0.17000
C146        C  0.74575079  0.11180881  0.02064866     0.07100
C147        C  0.75875267  0.14995186  0.02057245     0.08900
C148        C  0.76946150  0.18278216  0.02051924    -0.17800
C149        C  0.76908096  0.33204927  0.02055308    -0.17000
C150        C  0.75703971  0.36272891  0.02064227     0.07100
C151        C  0.74328635  0.39899601  0.02076661     0.08900
C152        C  0.73161860  0.43002044  0.02084319    -0.17800
C153        C  0.89349799  0.23412177  0.87640659    -0.17000
C154        C  0.87453862  0.23816591  0.89847199     0.07100
C155        C  0.85343276  0.24388478  0.92630981     0.08900
C156        C  0.83628615  0.24968355  0.95138957    -0.17800
C157        C  0.83628868  0.24964472  0.08957840    -0.17000
C158        C  0.85342739  0.24385236  0.11467131     0.07100
C159        C  0.87452759  0.23816199  0.14252322     0.08900
C160        C  0.89349026  0.23415764  0.16458926    -0.17800
C161        C  0.00030088  0.21686090  0.57993919    -0.17000
C162        C  0.00039777  0.21643422  0.54242725     0.07100
C163        C  0.00042204  0.21647650  0.49848339     0.08900
C164        C  0.00035770  0.21697207  0.46097224    -0.17800
C165        C  0.23020961  0.28443295  0.02050779    -0.17000
C166        C  0.24066489  0.31747261  0.02057172     0.07100
C167        C  0.25422018  0.35522778  0.02064336     0.08900
C168        C  0.26671509  0.38666039  0.02068058    -0.17800
C169        C  0.27116896  0.03602670  0.02062549    -0.17000
C170        C  0.26096681  0.06825694  0.02060170     0.07100
C171        C  0.24787298  0.10509452  0.02056385     0.08900
C172        C  0.23562678  0.13557001  0.02052520    -0.17800
C173        C  0.16512373  0.21110771  0.95175996    -0.17000
C174        C  0.14742881  0.21360194  0.92691097     0.07100
C175        C  0.12581553  0.21502947  0.89925189     0.08900
C176        C  0.10656757  0.21580913  0.87725907    -0.17800
C177        C  0.10655810  0.21622019  0.16355530    -0.17000
C178        C  0.12578431  0.21535032  0.14152756     0.07100
C179        C  0.14737409  0.21380953  0.11383958     0.08900
C180        C  0.16505964  0.21122585  0.08899089    -0.17800
C181        C  0.66571863  0.01504288  0.95231628    -0.17000
C182        C  0.64812502  0.01984059  0.92772652     0.07100
C183        C  0.62646542  0.02314111  0.90038977     0.08900
C184        C  0.60715339  0.02427008  0.87855557    -0.17800
C185        C  0.33623375  0.47104646  0.95147640    -0.17000
C186        C  0.35355076  0.47734208  0.92636808     0.07100
C187        C  0.37483267  0.48389184  0.89853141     0.08900
C188        C  0.39390979  0.48906410  0.87653246    -0.17800
C189        C  0.60713492  0.02496594  0.16291958    -0.17000
C190        C  0.62646097  0.02364653  0.14113543     0.07100
C191        C  0.64813640  0.02013474  0.11386333     0.08900
C192        C  0.66573616  0.01519855  0.08931691    -0.17800
C193        C  0.39390235  0.48963942  0.16472954    -0.17000
C194        C  0.37484318  0.48429474  0.14271891     0.07100
C195        C  0.35357619  0.47756410  0.11488033     0.08900
C196        C  0.33626428  0.47115451  0.08978119    -0.17800
C197        C  0.50152623  0.01164290  0.58025769    -0.17000
C198        C  0.50157986  0.01184772  0.54269563     0.07100
C199        C  0.50156187  0.01197813  0.49867417     0.08900
C200        C  0.50148254  0.01198796  0.46111152    -0.17800
N201        N  0.55456112  0.52148582  0.23860353    -0.25800
N202        N  0.54098603  0.52043119  0.20348335    -0.33600
C203        C  0.55781290  0.52235993  0.17119228     0.02600
C204        C  0.58312297  0.52478765  0.18676818     0.08600
C205        C  0.58047556  0.52408622  0.22954142    -0.04500
H206        H  0.55202940  0.52123358  0.13882061     0.09300
H207        H  0.59615517  0.52468281  0.25234890     0.10500
Cu208      Cu  0.50027623  0.01436722  0.20079946     0.44200
Cu209      Cu  0.53681013  0.51797219  0.29687330     0.42000
Cu210      Cu  0.46482377  0.00471987  0.29763721     0.43900
N211        N  0.45975679  0.00555466  0.20434029    -0.33200
N212        N  0.44658584  0.00175853  0.23969000    -0.27400
C213        C  0.42078429  0.99568571  0.23106209    -0.03500
C214        C  0.41780240  0.99575783  0.18832676     0.08700
C215        C  0.44278889  0.00202801  0.17234569     0.02500
H216        H  0.40545090  0.99132675  0.25412678     0.10100
H217        H  0.44830498  0.00360712  0.13987605     0.09200
N218        N  0.48804766  0.50914768  0.35090645    -0.34600
N219        N  0.51404582  0.51393531  0.35063258    -0.26800
C220        C  0.52279180  0.51571595  0.39014736    -0.02000
C221        C  0.50131048  0.51187554  0.41630850     0.06600
C222        C  0.47962277  0.50776901  0.39060236     0.04700
H223        H  0.54326949  0.51951358  0.39908993     0.09800
H224        H  0.45922193  0.00404279  0.39997821     0.08600
N225        N  0.44663257  0.00087620  0.80162449    -0.25800
N226        N  0.45980776  0.00451843  0.83698807    -0.33600
C227        C  0.44282961  0.00104832  0.86896731     0.02600
C228        C  0.41783198  0.99497816  0.85296062     0.08600
C229        C  0.42081696  0.99496362  0.81022781    -0.04500
H230        H  0.44834327  0.00256645  0.90144496     0.09300
H231        H  0.40547123  0.99078157  0.78714436     0.10500
Cu232      Cu  0.50033118  0.01317133  0.84056049     0.44200
Cu233      Cu  0.46487952  0.00389704  0.74369756     0.42000
Cu234      Cu  0.53687945  0.51697308  0.74451567     0.43900
N235        N  0.54103098  0.51931261  0.83791229    -0.33200
N236        N  0.55461545  0.52044914  0.80280564    -0.27400
C237        C  0.58052402  0.52318000  0.81189606    -0.03500
C238        C  0.58315249  0.52387928  0.85467374     0.08700
C239        C  0.55784215  0.52131593  0.87022174     0.02500
H240        H  0.59620969  0.52390366  0.78910876     0.10100
H241        H  0.55204733  0.52018862  0.90258898     0.09200
N242        N  0.51411285  0.51309738  0.69074038    -0.34600
N243        N  0.48811030  0.50838466  0.69045182    -0.26800
C244        C  0.47968000  0.50716719  0.65075387    -0.02000
C245        C  0.50136818  0.51129890  0.62505928     0.06600
C246        C  0.52285644  0.51498793  0.65123008     0.04700
H247        H  0.45927018  0.00355821  0.64136802     0.09800
H248        H  0.54333454  0.51878646  0.64229760     0.08600
C249        C  0.21921652  0.67116166  0.02047543     0.88000
C250        C  0.20086405  0.67307002  0.05828840    -0.52200
C251        C  0.18527599  0.70565581  0.05813243     0.10900
C252        C  0.18951721  0.73345934  0.02039114     0.21900
C253        C  0.20092103  0.67303295  0.98258850    -0.53000
C254        C  0.18533027  0.70561622  0.98265671     0.11000
C255        C  0.23488005  0.71121729  0.02049248    -0.52500
C256        C  0.21929446  0.74387428  0.02045111     0.11600
H257        H  0.19979668  0.65022297  0.08237795     0.16100
H258        H  0.17675618  0.75996027  0.02035716     0.01900
H259        H  0.19988115  0.65015183  0.95852551     0.16400
H260        H  0.25628081  0.71355393  0.02054822     0.16200
C261        C  0.28297589  0.92399733  0.02067152     0.88000
C262        C  0.30127257  0.92799110  0.98276501    -0.52200
C263        C  0.31652279  0.96239425  0.98286669     0.10900
C264        C  0.31208015  0.48965341  0.02062652     0.21900
C265        C  0.30129786  0.92802906  0.05855323    -0.53000
C266        C  0.31654783  0.96243590  0.05840437     0.11000
C267        C  0.26696815  0.96229427  0.02066738    -0.52500
C268        C  0.28227354  0.49666841  0.02064378     0.11600
H269        H  0.30240268  0.90540692  0.95852003     0.16100
H270        H  0.32455201  0.51763704  0.02060543     0.01900
H271        H  0.30243954  0.90547386  0.08281733     0.16400
H272        H  0.24556296  0.96224950  0.02067834     0.16200
N273        N  0.05402769  0.71889702  0.23913737    -0.25800
N274        N  0.04056408  0.72033063  0.20398702    -0.33600
C275        C  0.05739454  0.71940198  0.17174790     0.02600
C276        C  0.08259841  0.71731704  0.18740220     0.08600
C277        C  0.07989104  0.71701621  0.23017052    -0.04500
H278        H  0.05167002  0.72030837  0.13935658     0.09300
H279        H  0.09547503  0.71564215  0.25303752     0.10500
Cu280      Cu  0.99995010  0.72362599  0.20132222     0.44200
Cu281      Cu  0.03603507  0.71958112  0.29718437     0.42000
Cu282      Cu  0.96380748  0.72403580  0.29785617     0.43900
N283        N  0.95932778  0.72641742  0.20460877    -0.33200
N284        N  0.94588042  0.72659288  0.23984005    -0.27400
C285        C  0.92002388  0.72899102  0.23102347    -0.03500
C286        C  0.91731376  0.73031569  0.18828806     0.08700
C287        C  0.94249330  0.72868074  0.17249348     0.02500
H288        H  0.90447398  0.73001833  0.25397151     0.10100
H289        H  0.94822849  0.72941970  0.14008784     0.09200
N290        N  0.98701357  0.72095737  0.35096787    -0.34600
N291        N  0.01305794  0.71944445  0.35070293    -0.26800
C292        C  0.02176814  0.71765737  0.39017064    -0.02000
C293        C  0.00021583  0.71803885  0.41626232     0.06600
C294        C  0.97851851  0.72015733  0.39061942     0.04700
H295        H  0.04227403  0.71622813  0.39911966     0.09800
H296        H  0.95807205  0.72111899  0.40000105     0.08600
N297        N  0.94585280  0.72644991  0.80110714    -0.25800
N298        N  0.95930794  0.72613469  0.83633090    -0.33600
C299        C  0.94248712  0.72841839  0.86846112     0.02600
C300        C  0.91730848  0.73021330  0.85268607     0.08600
C301        C  0.92000646  0.72896103  0.80994575    -0.04500
H302        H  0.94823164  0.72906380  0.90086546     0.09300
H303        H  0.90445315  0.73011149  0.78700691     0.08900
Cu304      Cu  0.99992674  0.72315204  0.83959372     0.44200
Cu305      Cu  0.96375452  0.72391107  0.74306789     0.42000
Cu306      Cu  0.03597085  0.71911669  0.74372122     0.43900
N307        N  0.04054175  0.71979900  0.83690710    -0.33200
N308        N  0.05398939  0.71837397  0.80174367    -0.27400
C309        C  0.07985870  0.71651363  0.81068025    -0.03500
C310        C  0.08258830  0.71681770  0.85344554     0.08700
C311        C  0.05739026  0.71888464  0.86912770     0.02500
H312        H  0.09543100  0.71517770  0.78779737     0.10100
H313        H  0.05168346  0.71981677  0.90152658     0.09200
N314        N  0.01298750  0.71912454  0.69021417    -0.34600
N315        N  0.98694927  0.72076920  0.68994722    -0.26800
C316        C  0.97845566  0.72005534  0.65029079    -0.02000
C317        C  0.00014890  0.71785464  0.62465096     0.06600
C318        C  0.02169542  0.71733603  0.65074753     0.04700
H319        H  0.95801545  0.72113721  0.64090447     0.09800
H320        H  0.04219621  0.71582226  0.64180288     0.08600
C321        C  0.78433186  0.79523445  0.02051066     0.88000
C322        C  0.80253217  0.79175994  0.05838923    -0.52200
C323        C  0.81682645  0.75777915  0.05823266     0.10900
C324        C  0.81162478  0.73040577  0.02047522     0.21900
C325        C  0.80252162  0.79178114  0.98261570    -0.53000
C326        C  0.81681776  0.75779832  0.98273642     0.11000
C327        C  0.76725689  0.75645507  0.02050013    -0.52500
C328        C  0.78161777  0.72251085  0.02048364     0.11600
H329        H  0.80429500  0.81436794  0.08265434     0.16100
H330        H  0.82334569  0.70278332  0.02046343     0.01900
H331        H  0.80428047  0.81440520  0.95837451     0.16400
H332        H  0.74583823  0.75588108  0.02051969     0.16200
C333        C  0.71719109  0.96762423  0.02084559     0.88000
C334        C  0.69909743  0.97205239  0.05871683    -0.52200
C335        C  0.68553894  0.00675719  0.05855851     0.10900
C336        C  0.69136192  0.53388414  0.02079554     0.21900
C337        C  0.69908418  0.97198145  0.98298303    -0.53000
C338        C  0.68552622  0.00668207  0.98308783     0.11000
C339        C  0.73509990  0.00551735  0.02080580    -0.52500
C340        C  0.72152685  0.54021714  0.02077868     0.11600
H341        H  0.69670144  0.94938944  0.08281638     0.16100
H342        H  0.68025598  0.56210324  0.02077111     0.01900
H343        H  0.69668063  0.94927555  0.95892409     0.16400
H344        H  0.75649418  0.00496947  0.02079070     0.16200
C345        C  0.73458227  0.57931717  0.02071327    -0.17000
C346        C  0.74575078  0.61180873  0.02064867     0.07100
C347        C  0.75875261  0.64995184  0.02057246     0.08900
C348        C  0.76946144  0.68278215  0.02051922    -0.17800
C349        C  0.76908092  0.83204934  0.02055309    -0.17000
C350        C  0.75703967  0.86272901  0.02064227     0.07100
C351        C  0.74328635  0.89899615  0.02076666     0.08900
C352        C  0.73161861  0.93002054  0.02084326    -0.17800
C353        C  0.89349787  0.73412169  0.87640641    -0.17000
C354        C  0.87453855  0.73816586  0.89847191     0.07100
C355        C  0.85343274  0.74388482  0.92630980     0.08900
C356        C  0.83628610  0.74968360  0.95138951    -0.17800
C357        C  0.83628868  0.74964474  0.08957833    -0.17000
C358        C  0.85342739  0.74385242  0.11467126     0.07100
C359        C  0.87452759  0.73816203  0.14252321     0.08900
C360        C  0.89349027  0.73415768  0.16458926    -0.17800
C361        C  0.00030095  0.71686072  0.57993921    -0.17000
C362        C  0.00039779  0.71643408  0.54242728     0.07100
C363        C  0.00042203  0.71647642  0.49848343     0.08900
C364        C  0.00035775  0.71697204  0.46097227    -0.17800
C365        C  0.23020956  0.78443294  0.02050780    -0.17000
C366        C  0.24066482  0.81747260  0.02057173     0.07100
C367        C  0.25422010  0.85522777  0.02064337     0.08900
C368        C  0.26671503  0.88666037  0.02068060    -0.17800
C369        C  0.27116895  0.53602671  0.02062553    -0.17000
C370        C  0.26096680  0.56825692  0.02060172     0.07100
C371        C  0.24787301  0.60509452  0.02056393     0.08900
C372        C  0.23562685  0.63557004  0.02052529    -0.17800
C373        C  0.16512377  0.71110762  0.95175996    -0.17000
C374        C  0.14742886  0.71360190  0.92691097     0.07100
C375        C  0.12581556  0.71502955  0.89925190     0.08900
C376        C  0.10656761  0.71580924  0.87725907    -0.17800
C377        C  0.10655812  0.71622018  0.16355535    -0.17000
C378        C  0.12578434  0.71535029  0.14152761     0.07100
C379        C  0.14737410  0.71380948  0.11383958     0.08900
C380        C  0.16505963  0.71122577  0.08899089    -0.17800
C381        C  0.66571859  0.51504288  0.95231615    -0.17000
C382        C  0.64812499  0.51984065  0.92772639     0.07100
C383        C  0.62646538  0.52314126  0.90038970     0.08900
C384        C  0.60715333  0.52427021  0.87855557    -0.17800
C385        C  0.33623373  0.97104633  0.95147630    -0.17000
C386        C  0.35355074  0.97734200  0.92636799     0.07100
C387        C  0.37483266  0.98389187  0.89853137     0.08900
C388        C  0.39390980  0.98906419  0.87653246    -0.17800
C389        C  0.60713499  0.52496582  0.16291960    -0.17000
C390        C  0.62646102  0.52364640  0.14113540     0.07100
C391        C  0.64813644  0.52013466  0.11386328     0.08900
C392        C  0.66573617  0.51519846  0.08931686    -0.17800
C393        C  0.39390231  0.98963945  0.16472951    -0.17000
C394        C  0.37484312  0.98429482  0.14271890     0.07100
C395        C  0.35357615  0.97756414  0.11488031     0.08900
C396        C  0.33626426  0.97115450  0.08978114    -0.17800
C397        C  0.50152638  0.51164293  0.58025771    -0.17000
C398        C  0.50157996  0.51184775  0.54269565     0.07100
C399        C  0.50156187  0.51197810  0.49867418     0.08900
C400        C  0.50148254  0.51198786  0.46111153    -0.17800
loop_ 
_geom_bond_atom_site_label_1 
_geom_bond_atom_site_label_2 
_geom_bond_distance 
_geom_bond_site_symmetry_2 
_ccdc_geom_bond_type 
N1            N2   1.323       .  A
N1            C5   1.348       .  A
N1           Cu9   2.081       .  S
N2            C3   1.345       .  A
N2         Cu208   2.072       .  S
C3            C4   1.379       .  A
C3            H6   1.082       .  S
C4            C5   1.382       .  A
C4          C189   1.440       .  S
C5            H7   1.082       .  S
Cu8          N11   2.072       .  S
Cu8         N202   2.072       .  S
Cu9          N19   2.081       .  S
Cu10         N12   2.082       .  S
Cu10        N218   2.082       .  S
N11          N12   1.323       .  A
N11          C15   1.345       .  A
N12          C13   1.348       .  A
C13          C14   1.382       .  A
C13          H16   1.082       .  S
C14          C15   1.379       .  A
C14         C193   1.440       .  S
C15          H17   1.082       .  S
N18          N19   1.325       .  A
N18          C22   1.347       .  A
N18        Cu210   2.082       .  S
N19          C20   1.347       .  A
C20          C21   1.380       .  A
C20          H23   1.082       .  S
C21          C22   1.380       .  A
C21         C200   1.441       .  S
C22         H224   1.082       .  S
H24         C222   1.082       .  S
N25          N26   1.323       .  A
N25          C29   1.348       .  A
N25         Cu33   2.081       .  S
N26          C27   1.345       .  A
N26         Cu32   2.072       .  S
C27          C28   1.379       .  A
C27          H30   1.082       .  S
C28          C29   1.382       .  A
C28         C188   1.440       .  S
C29          H31   1.082       .  S
Cu32        N235   2.072       .  S
Cu33        N243   2.082       .  S
Cu34         N36   2.081       .  S
Cu34         N42   2.082       .  S
N35          N36   1.323       .  A
N35          C39   1.345       .  A
N35        Cu232   2.072       .  S
N36          C37   1.348       .  A
C37          C38   1.382       .  A
C37          H40   1.082       .  S
C38          C39   1.379       .  A
C38         C184   1.440       .  S
C39          H41   1.082       .  S
N42          N43   1.325       .  A
N42          C46   1.347       .  A
N43          C44   1.346       .  A
N43        Cu233   2.082       .  S
C44          C45   1.380       .  A
C44         H247   1.082       .  S
C45          C46   1.380       .  A
C45         C197   1.441       .  S
C46          H48   1.082       .  S
H47         C244   1.082       .  S
C49          C50   1.534       .  S
C49          C55   1.534       .  S
C49          C53   1.534   1_554  S
C49         C172   1.471       .  S
C50          H57   1.087       .  S
C50          C51   1.364       .  D
C51          C52   1.538       .  S
C51         C180   1.444       .  S
C52          C56   1.541       .  S
C52          C54   1.539   1_554  S
C52          H58   1.112       .  S
C53          H59   1.087       .  S
C53          C54   1.364       .  D
C54         C173   1.444       .  S
C55          H60   1.087       .  S
C55          C56   1.365       .  D
C56         C165   1.446       .  S
C61          C62   1.536   1_554  S
C61          C67   1.534       .  S
C61          C65   1.536       .  S
C61         C168   1.473       .  S
C62          H69   1.087       .  S
C62          C63   1.364       .  D
C63         C264   1.537   1_556  S
C63         C185   1.444       .  S
C64          C68   1.538       .  S
C64         C263   1.537   1_554  S
C64         C266   1.537       .  S
C64          H70   1.112   1_565  S
C65          H71   1.087       .  S
C65          C66   1.365       .  D
C66         C264   1.537       .  S
C66         C196   1.444       .  S
C67          H72   1.087       .  S
C67         C268   1.365       .  D
C68         C267   1.365       .  D
C68         C169   1.444   1_565  S
N73          N74   1.322       .  A
N73          C77   1.348       .  A
N73         Cu81   2.078       .  S
N74          C75   1.344       .  A
N74         Cu80   2.070   1_455  S
C75          C76   1.379       .  A
C75          H78   1.082       .  S
C76          C77   1.382       .  A
C76         C177   1.439       .  S
C77          H79   1.082       .  S
Cu80         N83   2.070       .  S
Cu81         N91   2.079       .  S
Cu82         N84   2.078       .  S
Cu82         N90   2.079       .  S
N83          N84   1.323       .  A
N83          C87   1.344       .  A
N84          C85   1.348       .  A
C85          C86   1.382       .  A
C85          H88   1.082       .  S
C86          C87   1.378       .  A
C86         C160   1.438       .  S
C87          H89   1.082       .  S
N90          N91   1.325   1_655  A
N90          C94   1.346       .  A
N91          C92   1.346       .  A
C92          C93   1.379       .  A
C92          H95   1.082       .  S
C93          C94   1.379   1_455  A
C93         C164   1.438       .  S
C94          H96   1.082       .  S
N97          N98   1.323       .  A
N97         C101   1.348       .  A
N97        Cu105   2.079       .  S
N98          C99   1.344       .  A
N98        Cu104   2.070       .  S
C99         C100   1.378       .  A
C99         H102   1.082       .  S
C100        C101   1.382       .  A
C100        C153   1.439       .  S
C101        H103   1.082       .  S
Cu104       N107   2.070   1_655  S
Cu105       N115   2.079       .  S
Cu106       N108   2.078       .  S
Cu106       N114   2.079       .  S
N107        N108   1.322       .  A
N107        C111   1.344       .  A
N108        C109   1.348       .  A
C109        C110   1.382       .  A
C109        H112   1.082       .  S
C110        C111   1.379       .  A
C110        C176   1.439       .  S
C111        H113   1.082       .  S
N114        N115   1.325   1_455  A
N114        C118   1.346       .  A
N115        C116   1.346       .  A
C116        C117   1.379   1_655  A
C116        H119   1.082       .  S
C117        C118   1.379       .  A
C117        C161   1.438       .  S
C118        H120   1.082       .  S
C121        C122   1.535       .  S
C121        C127   1.535       .  S
C121        C125   1.535   1_554  S
C121        C149   1.471       .  S
C122        H129   1.087       .  S
C122        C123   1.364       .  D
C123        C124   1.537       .  S
C123        C157   1.443       .  S
C124        C128   1.538       .  S
C124        C126   1.537   1_554  S
C124        H130   1.112       .  S
C125        H131   1.087       .  S
C125        C126   1.364       .  D
C126        C156   1.443       .  S
C127        H132   1.087       .  S
C127        C128   1.365       .  D
C128        C148   1.444       .  S
C133        C134   1.535       .  S
C133        C139   1.534       .  S
C133        C137   1.535   1_554  S
C133        C152   1.471       .  S
C134        H141   1.087       .  S
C134        C135   1.364       .  D
C135        C336   1.538       .  S
C135        C392   1.444       .  S
C136        C140   1.539       .  S
C136        C335   1.538       .  S
C136        C338   1.538   1_554  S
C136        H142   1.112       .  S
C137        H143   1.087       .  S
C137        C138   1.364       .  D
C138        C336   1.538   1_556  S
C138        C381   1.444       .  S
C139        H144   1.087       .  S
C139        C340   1.365       .  D
C140        C339   1.365       .  D
C140        C145   1.445       .  S
C145        C146   1.208       .  T
C146        C147   1.415       .  S
C147        C148   1.207       .  T
C149        C150   1.208       .  T
C150        C151   1.415       .  S
C151        C152   1.208       .  T
C153        C154   1.207       .  T
C154        C155   1.414       .  S
C155        C156   1.207       .  T
C157        C158   1.206       .  T
C158        C159   1.413       .  S
C159        C160   1.207       .  T
C161        C162   1.206       .  T
C162        C163   1.413       .  S
C163        C164   1.206       .  T
C165        C166   1.208       .  T
C166        C167   1.416       .  S
C167        C168   1.209       .  T
C169        C170   1.207       .  T
C170        C171   1.414       .  S
C171        C172   1.207       .  T
C173        C174   1.207       .  T
C174        C175   1.414       .  S
C175        C176   1.207       .  T
C177        C178   1.207       .  T
C178        C179   1.414       .  S
C179        C180   1.207       .  T
C181        C338   1.444       .  S
C181        C182   1.207       .  T
C182        C183   1.415       .  S
C183        C184   1.207       .  T
C185        C186   1.207       .  T
C186        C187   1.415       .  S
C187        C188   1.207       .  T
C189        C190   1.207       .  T
C190        C191   1.415       .  S
C191        C192   1.207       .  T
C192        C335   1.444       .  S
C193        C194   1.208       .  T
C194        C195   1.415       .  S
C195        C196   1.207       .  T
C197        C198   1.208       .  T
C198        C199   1.415       .  S
C199        C200   1.208       .  T
N201        N202   1.323       .  A
N201        C205   1.348       .  A
N201       Cu209   2.081       .  S
N202        C203   1.345       .  A
C203        C204   1.379       .  A
C203        H206   1.082       .  S
C204        C205   1.382       .  A
C204        C389   1.440       .  S
C205        H207   1.082       .  S
Cu208       N211   2.072       .  S
Cu209       N219   2.081       .  S
Cu210       N212   2.082       .  S
N211        N212   1.323       .  A
N211        C215   1.345       .  A
N212        C213   1.348   1_545  A
C213        C214   1.382       .  A
C213        H216   1.082       .  S
C214        C215   1.379   1_565  A
C214        C393   1.440       .  S
C215        H217   1.082       .  S
N218        N219   1.325       .  A
N218        C222   1.347       .  A
N219        C220   1.347       .  A
C220        C221   1.380       .  A
C220        H223   1.082       .  S
C221        C222   1.380       .  A
C221        C400   1.441       .  S
N225        N226   1.323       .  A
N225        C229   1.348   1_545  A
N225       Cu233   2.081       .  S
N226        C227   1.345       .  A
N226       Cu232   2.072       .  S
C227        C228   1.379   1_545  A
C227        H230   1.082       .  S
C228        C229   1.382       .  A
C228        C388   1.440       .  S
C229        H231   1.082       .  S
Cu234       N236   2.081       .  S
Cu234       N242   2.082       .  S
N235        N236   1.323       .  A
N235        C239   1.345       .  A
N236        C237   1.348       .  A
C237        C238   1.382       .  A
C237        H240   1.082       .  S
C238        C239   1.379       .  A
C238        C384   1.440       .  S
C239        H241   1.082       .  S
N242        N243   1.325       .  A
N242        C246   1.347       .  A
N243        C244   1.346       .  A
C244        C245   1.380       .  A
C245        C246   1.380       .  A
C245        C397   1.441       .  S
C246        H248   1.082       .  S
C249        C250   1.534       .  S
C249        C255   1.534       .  S
C249        C253   1.534   1_554  S
C249        C372   1.471       .  S
C250        H257   1.087       .  S
C250        C251   1.364       .  D
C251        C252   1.538       .  S
C251        C380   1.444       .  S
C252        C256   1.541       .  S
C252        C254   1.539   1_554  S
C252        H258   1.112       .  S
C253        H259   1.087       .  S
C253        C254   1.364       .  D
C254        C373   1.444       .  S
C255        H260   1.087       .  S
C255        C256   1.365       .  D
C256        C365   1.446       .  S
C261        C262   1.536   1_554  S
C261        C267   1.534       .  S
C261        C265   1.536       .  S
C261        C368   1.473       .  S
C262        H269   1.087       .  S
C262        C263   1.364       .  D
C263        C385   1.444       .  S
C264        C268   1.538       .  S
C264        H270   1.112       .  S
C265        H271   1.087       .  S
C265        C266   1.365       .  D
C266        C396   1.444       .  S
C267        H272   1.087       .  S
C268        C369   1.444       .  S
N273        N274   1.322       .  A
N273        C277   1.348       .  A
N273       Cu281   2.078       .  S
N274        C275   1.344       .  A
N274       Cu280   2.070   1_455  S
C275        C276   1.379       .  A
C275        H278   1.082       .  S
C276        C277   1.382       .  A
C276        C377   1.439       .  S
C277        H279   1.082       .  S
Cu280       N283   2.070       .  S
Cu281       N291   2.079       .  S
Cu282       N284   2.078       .  S
Cu282       N290   2.079       .  S
N283        N284   1.323       .  A
N283        C287   1.344       .  A
N284        C285   1.348       .  A
C285        C286   1.382       .  A
C285        H288   1.082       .  S
C286        C287   1.378       .  A
C286        C360   1.438       .  S
C287        H289   1.082       .  S
N290        N291   1.325   1_655  A
N290        C294   1.346       .  A
N291        C292   1.346       .  A
C292        C293   1.379       .  A
C292        H295   1.082       .  S
C293        C294   1.379   1_455  A
C293        C364   1.438       .  S
C294        H296   1.082       .  S
N297        N298   1.323       .  A
N297        C301   1.348       .  A
N297       Cu305   2.079       .  S
N298        C299   1.344       .  A
N298       Cu304   2.070       .  S
C299        C300   1.378       .  A
C299        H302   1.082       .  S
C300        C301   1.382       .  A
C300        C353   1.439       .  S
C301        H303   1.082       .  S
Cu304       N307   2.070   1_655  S
Cu305       N315   2.079       .  S
Cu306       N308   2.078       .  S
Cu306       N314   2.079       .  S
N307        N308   1.322       .  A
N307        C311   1.344       .  A
N308        C309   1.348       .  A
C309        C310   1.382       .  A
C309        H312   1.082       .  S
C310        C311   1.379       .  A
C310        C376   1.439       .  S
C311        H313   1.082       .  S
N314        N315   1.325   1_455  A
N314        C318   1.346       .  A
N315        C316   1.346       .  A
C316        C317   1.379   1_655  A
C316        H319   1.082       .  S
C317        C318   1.379       .  A
C317        C361   1.438       .  S
C318        H320   1.082       .  S
C321        C322   1.535       .  S
C321        C327   1.535       .  S
C321        C325   1.535   1_554  S
C321        C349   1.471       .  S
C322        H329   1.087       .  S
C322        C323   1.364       .  D
C323        C324   1.537       .  S
C323        C357   1.443       .  S
C324        C328   1.538       .  S
C324        C326   1.537   1_554  S
C324        H330   1.112       .  S
C325        H331   1.087       .  S
C325        C326   1.364       .  D
C326        C356   1.443       .  S
C327        H332   1.087       .  S
C327        C328   1.365       .  D
C328        C348   1.444       .  S
C333        C334   1.535       .  S
C333        C339   1.534   1_565  S
C333        C337   1.535   1_554  S
C333        C352   1.471       .  S
C334        H341   1.087       .  S
C334        C335   1.364   1_565  D
C336        C340   1.539       .  S
C336        H342   1.112       .  S
C337        H343   1.087       .  S
C337        C338   1.364   1_565  D
C339        H344   1.087       .  S
C340        C345   1.445       .  S
C345        C346   1.208       .  T
C346        C347   1.415       .  S
C347        C348   1.207       .  T
C349        C350   1.208       .  T
C350        C351   1.415       .  S
C351        C352   1.208       .  T
C353        C354   1.207       .  T
C354        C355   1.414       .  S
C355        C356   1.207       .  T
C357        C358   1.206       .  T
C358        C359   1.413       .  S
C359        C360   1.207       .  T
C361        C362   1.206       .  T
C362        C363   1.413       .  S
C363        C364   1.206       .  T
C365        C366   1.208       .  T
C366        C367   1.416       .  S
C367        C368   1.209       .  T
C369        C370   1.207       .  T
C370        C371   1.414       .  S
C371        C372   1.207       .  T
C373        C374   1.207       .  T
C374        C375   1.414       .  S
C375        C376   1.207       .  T
C377        C378   1.207       .  T
C378        C379   1.414       .  S
C379        C380   1.207       .  T
C381        C382   1.207       .  T
C382        C383   1.415       .  S
C383        C384   1.207       .  T
C385        C386   1.207       .  T
C386        C387   1.415       .  S
C387        C388   1.207       .  T
C389        C390   1.207       .  T
C390        C391   1.415       .  S
C391        C392   1.207       .  T
C393        C394   1.208       .  T
C394        C395   1.415       .  S
C395        C396   1.207       .  T
C397        C398   1.208       .  T
C398        C399   1.415       .  S
C399        C400   1.208       .  T
