geometry optimzed in LAMMPS
_audit_creation_date              2020-11-30 
_audit_creation_method            'lammps2cif' 
_symmetry_space_group_name_H-M    'P1' 
_symmetry_Int_Tables_number       1 
_symmetry_cell_setting            triclinic 
loop_ 
_symmetry_equiv_pos_as_xyz 
  x,y,z 
_cell_length_a                    37.18076068 
_cell_length_b                    34.26822593066175 
_cell_length_c                    20.769869011105452 
_cell_angle_alpha                 92.90148363117356 
_cell_angle_beta                  89.91186666620517 
_cell_angle_gamma                 86.44575716806854 
loop_ 
_atom_site_label 
_atom_site_type_symbol 
_atom_site_fract_x 
_atom_site_fract_y 
_atom_site_fract_z 
_atom_site_charge 
N1          N  0.11385164  0.29212324  0.37961699    -0.01500
C2          C  0.12625886  0.28608389  0.31846495     0.01100
C3          C  0.09794312  0.28683095  0.27559058    -0.21800
C4          C  0.06720066  0.29231881  0.31212001    -0.22000
C5          C  0.07730888  0.29391470  0.37606006     0.01000
H6          H  0.09920361  0.27993078  0.22413457     0.14800
H7          H  0.04041463  0.28763945  0.29482680     0.14800
N8          N  0.36902574  0.12319480  0.11250067    -0.01500
C9          C  0.35362031  0.12854571  0.17186005     0.01100
C10         C  0.37926909  0.13128401  0.21944333    -0.21800
C11         C  0.41172946  0.13058587  0.18921539    -0.22000
C12         C  0.40498582  0.12785494  0.12369469     0.01000
H13         H  0.37448802  0.13966843  0.26985917     0.14800
H14         H  0.43669217  0.13763461  0.21244309     0.14800
Zn15       Zn  0.23767945  0.23973220  0.33056544     1.49700
Zn16       Zn  0.24617180  0.16121813  0.24213062     1.49400
Zn17       Zn  0.20880934  0.23779545  0.18839493     1.49100
Zn18       Zn  0.29043797  0.23578037  0.21003037     1.49500
O19         O  0.24600460  0.21819869  0.24262514    -1.82100
O20         O  0.25086715  0.19816234  0.39552600    -0.72800
O21         O  0.20613809  0.13981132  0.18673886    -0.72600
O22         O  0.16944889  0.26564308  0.23981483    -0.72100
O23         O  0.24593398  0.14390554  0.33329270    -0.72800
O24         O  0.18595706  0.26143727  0.34225287    -0.72400
O25         O  0.18754532  0.19474854  0.14088128    -0.73000
O26         O  0.28439134  0.27342815  0.13747585    -0.72400
O27         O  0.29297431  0.13716124  0.20550738    -0.73100
O28         O  0.22554230  0.27173854  0.12215994    -0.72500
O29         O  0.32200767  0.18932584  0.18005184    -0.73000
O30         O  0.31498002  0.26223915  0.28424086    -0.72900
O31         O  0.27030235  0.28266972  0.35077083    -0.72700
C32         C  0.25151700  0.16098702  0.38806386     0.79100
C33         C  0.18724234  0.15812359  0.14550737     0.79600
C34         C  0.16284632  0.27114484  0.29972929     0.78600
C35         C  0.25587527  0.28377865  0.10736400     0.78900
C36         C  0.32038085  0.15250128  0.18344486     0.80100
C37         C  0.30329892  0.28176838  0.33430549     0.79100
N38         N  0.15691311  0.33629064  0.43301345    -0.01500
C39         C  0.16955709  0.34085779  0.99415066     0.01100
C40         C  0.15268901  0.31567234  0.03339463    -0.21800
C41         C  0.13075969  0.29347166  0.49542870    -0.22000
C42         C  0.13452400  0.30590570  0.43415110     0.01000
H43         H  0.15936368  0.31030526  0.08307136     0.14800
H44         H  0.11483823  0.27015696  0.51049902     0.14800
C45         C  0.24940909  0.38136441  0.07204287     0.82200
N46         N  0.26970838  0.34745901  0.07753269    -0.76100
C47         C  0.25616337  0.31316611  0.05872239     0.84700
N48         N  0.22864431  0.31366743  0.01612724    -0.76000
C49         C  0.20778430  0.34700176  0.00825208     0.84700
N50         N  0.21746317  0.38081566  0.03924346    -0.77800
N51         N  0.14984306  0.36857333  0.39343526    -0.01500
C52         C  0.16753519  0.37114609  0.33631822     0.01100
C53         C  0.14243969  0.37066429  0.28632981    -0.21800
C54         C  0.10924728  0.37776692  0.31376898    -0.22000
C55         C  0.11478468  0.37722862  0.37887978     0.01000
H56         H  0.14770949  0.37439559  0.23573406     0.14800
H57         H  0.08449825  0.38614835  0.28932940     0.14800
N58         N  0.38715462  0.03832305  0.13373833     0.00100
C59         C  0.36938103  0.03884972  0.19114400     0.01100
C60         C  0.39388392  0.53837628  0.24101293    -0.21800
C61         C  0.42748834  0.53638879  0.21369547    -0.22000
C62         C  0.42273593  0.03586248  0.14765663     0.01000
H63         H  0.38813653  0.53420224  0.29129742     0.14800
H64         H  0.45246874  0.53064577  0.23892216     0.14800
Zn65       Zn  0.30320577  0.44317183  0.22893541     1.49700
Zn66       Zn  0.21802621  0.45723822  0.22975401     1.49400
Zn67       Zn  0.25706837  0.45178922  0.36321527     1.49100
Zn68       Zn  0.26181211  0.02524883  0.26725401     1.49500
O69         O  0.26139464  0.46926943  0.27422172    -1.82100
O70         O  0.28413869  0.40993635  0.15477690    -0.72800
O71         O  0.19676518  0.41455648  0.27282099    -0.72600
O72         O  0.30393209  0.42147603  0.38145062    -0.72100
O73         O  0.22815336  0.43505249  0.14004392    -0.72800
O74         O  0.33589649  0.41047378  0.29095708    -0.72400
O75         O  0.21590702  0.41250548  0.37333051    -0.73000
O76         O  0.25758278  0.04797785  0.35584523    -0.72400
O77         O  0.18017020  0.50236837  0.22561749    -0.73100
O78         O  0.25319359  0.00137673  0.42643055    -0.72500
O79         O  0.21936168  0.04776831  0.21633263    -0.73000
O80         O  0.30916334  0.04095820  0.22978927    -0.72900
O81         O  0.33495668  0.48359393  0.19374632    -0.72700
C82         C  0.25463008  0.41151178  0.12312384     0.79100
C83         C  0.19579678  0.39995458  0.32777081     0.79600
C84         C  0.33207469  0.40682879  0.35155565     0.78600
C85         C  0.25455363  0.03745518  0.41337391     0.78900
C86         C  0.18782944  0.53576908  0.20777015     0.80100
C87         C  0.33510924  0.52074363  0.20176237     0.79100
C88         C  0.25934242  0.13583924  0.44231724     0.82200
N89         N  0.29271023  0.13483683  0.47018408    -0.76100
C90         C  0.30494867  0.10269727  0.50202847     0.84700
N91         N  0.28447850  0.07080771  0.50078380    -0.76000
C92         C  0.25468472  0.06949144  0.46344906     0.84700
N93         N  0.23970957  0.10387871  0.44409447    -0.77800
N94         N  0.35791616  0.09135799  0.07225286    -0.01500
C95         C  0.34425946  0.09419782  0.01175589     0.01100
C96         C  0.35736347  0.06109647  0.47502666    -0.21800
C97         C  0.37303856  0.03490668  0.01626584    -0.22000
C98         C  0.37266371  0.05426548  0.07572361     0.01000
H99         H  0.34894675  0.05291171  0.42655243     0.14800
H100        H  0.38168755  0.00468016  0.00450440     0.14800
N101        N  0.12909637  0.13382762  0.11137985    -0.01500
C102        C  0.11208665  0.13330455  0.05379424     0.01100
C103        C  0.13771326  0.13436043  0.00522844    -0.21800
C104        C  0.17031541  0.13859005  0.03471277    -0.22000
C105        C  0.16431795  0.13795036  0.09997895     0.01000
H106        H  0.13263779  0.13856003  0.95471053     0.14800
H107        H  0.19434704  0.14743271  0.01186073     0.14800
N108        N  0.36506099  0.29756868  0.36962033    -0.01500
C109        C  0.38079090  0.29210280  0.42778156     0.01100
C110        C  0.35490439  0.29172281  0.47524804    -0.21800
C111        C  0.32233621  0.29532781  0.44524581    -0.22000
C112        C  0.32903840  0.29784766  0.38035581     0.01000
H113        H  0.35912217  0.28310532  0.52426678     0.14800
H114        H  0.29714624  0.28855613  0.46613429     0.14800
Zn115      Zn  0.50170293  0.18888910  0.08320966     1.49700
Zn116      Zn  0.44856223  0.18628570  0.45700925     1.49400
Zn117      Zn  0.98866342  0.26574197  0.49785142     1.49100
Zn118      Zn  0.03229802  0.19207801  0.44195184     1.49500
O119        O  0.99191456  0.20827822  0.99639573    -1.82100
O120        O  0.46092926  0.15452040  0.10379970    -0.72800
O121        O  0.41525575  0.23196908  0.42813687    -0.72600
O122        O  0.49263120  0.28591562  0.08846896    -0.72100
O123        O  0.42078858  0.15661044  0.02416403    -0.72800
O124        O  0.49962992  0.23529765  0.15150461    -0.72400
O125        O  0.44077918  0.28610529  0.46431979    -0.73000
O126        O  0.06028083  0.23577474  0.41574967    -0.72400
O127        O  0.46257496  0.14757122  0.38062463    -0.73100
O128        O  0.02764907  0.28964747  0.44699611    -0.72500
O129        O  0.01882117  0.16259222  0.36245627    -0.73000
O130        O  0.06757588  0.15798307  0.98548783    -0.72900
O131        O  0.05240696  0.15912033  0.08876088    -0.72700
C132        C  0.43041113  0.14604474  0.08006311     0.79100
C133        C  0.41487027  0.26921083  0.43729194     0.79600
C134        C  0.49651221  0.27212491  0.14390102     0.78600
C135        C  0.05490745  0.27265811  0.41825087     0.78900
C136        C  0.99179152  0.14319887  0.34786382     0.80100
C137        C  0.07471039  0.14944667  0.04287817     0.79100
C138        C  0.01478297  0.04529004  0.31832170     0.82200
N139        N  0.98937878  0.07548140  0.31917658    -0.76100
C140        C  0.99793380  0.11069850  0.29931365     0.84700
N141        N  0.02762026  0.11194913  0.26130250    -0.76000
C142        C  0.05353568  0.08190040  0.25834831     0.84700
N143        N  0.04707246  0.04875774  0.28823799    -0.77800
N144        N  0.10557227  0.08804572  0.18561500    -0.01500
C145        C  0.09126572  0.09197060  0.24614812     0.01100
C146        C  0.09919714  0.12850851  0.27338702    -0.21800
C147        C  0.11267004  0.14966320  0.22559807    -0.22000
C148        C  0.11446167  0.12460751  0.17202106     0.01000
H149        H  0.08951310  0.14123332  0.31945058     0.14800
H150        H  0.11901005  0.18008355  0.22888485     0.14800
N151        N  0.12693552  0.05448471  0.16100916    -0.01500
C152        C  0.11997037  0.04111938  0.09992499     0.01100
C153        C  0.14992753  0.54019041  0.06056217    -0.21800
C154        C  0.17766022  0.54987168  0.09908827    -0.22000
C155        C  0.16394957  0.05526163  0.16108137     0.01000
H156        H  0.15239728  0.52867329  0.01109228     0.14800
H157        H  0.20581326  0.54559656  0.08535207     0.14800
N158        N  0.39585407  0.37729010  0.37376402    -0.01500
C159        C  0.41448867  0.37701268  0.43021735     0.01100
C160        C  0.39094361  0.38146447  0.48205954    -0.21800
C161        C  0.35739199  0.38931063  0.45801624    -0.22000
C162        C  0.36097702  0.38818226  0.39180827     0.01000
H163        H  0.39818262  0.38620296  0.53226444     0.14800
H164        H  0.33368264  0.39898757  0.48624389     0.14800
Zn165      Zn  0.05788921  0.47577190  0.46630841     1.49700
Zn166      Zn  0.02073104  0.40042204  0.50242784     1.49400
Zn167      Zn  0.52322051  0.47597680  0.10257814     1.49100
Zn168      Zn  0.47396098  0.47935538  0.47373402     1.49500
O169        O  0.01821401  0.45752231  0.01163850    -1.82100
O170        O  0.09071706  0.43354140  0.43152304    -0.72800
O171        O  0.02015331  0.38012195  0.09137655    -0.72600
O172        O  0.06763467  0.50658524  0.12127448    -0.72100
O173        O  0.06389506  0.37876453  0.44851919    -0.72800
O174        O  0.08605295  0.01076624  0.02043568    -0.72400
O175        O  0.51772700  0.43153362  0.16189786    -0.73000
O176        O  0.44465577  0.50996223  0.04466202    -0.72400
O177        O  0.47558237  0.38035310  0.46097574    -0.73100
O178        O  0.48186749  0.51146427  0.12806834    -0.72500
O179        O  0.44387904  0.43558715  0.44071304    -0.73000
O180        O  0.48397052  0.01327501  0.39895797    -0.72900
O181        O  0.04340708  0.00419661  0.39056947    -0.72700
C182        C  0.08904850  0.39691337  0.42402195     0.79100
C183        C  0.51631847  0.39498927  0.14878372     0.79600
C184        C  0.08882163  0.51939163  0.08017184     0.78600
C185        C  0.45143950  0.51975030  0.10320857     0.78900
C186        C  0.44721345  0.39832542  0.44061506     0.80100
C187        C  0.01361163  0.01861976  0.37069754     0.79100
N188        N  0.40351067  0.34670332  0.32583719    -0.01500
C189        C  0.41694433  0.35309392  0.26645269     0.01100
C190        C  0.39651280  0.33349342  0.22066180    -0.21800
C191        C  0.37593758  0.30866731  0.25237267    -0.22000
C192        C  0.38146784  0.31660150  0.31717828     0.01000
H193        H  0.40247379  0.33010022  0.16955610     0.14800
H194        H  0.36180142  0.28556158  0.22885401     0.14800
C195        C  0.49810955  0.30114286  0.19823925     0.82200
N196        N  0.46829019  0.30885139  0.23558320    -0.76100
C197        C  0.45627024  0.34653681  0.25272205     0.84700
N198        N  0.47523263  0.37640587  0.23194750    -0.76000
C199        C  0.50686151  0.36855139  0.19870398     0.84700
N200        N  0.01929973  0.33084149  0.18786679    -0.77800
N201        N  0.11384634  0.29212236  0.87964720    -0.01500
C202        C  0.12625761  0.28607709  0.81849812     0.01100
C203        C  0.09794451  0.28681497  0.77561781    -0.21800
C204        C  0.06719924  0.29230367  0.81213929    -0.22000
C205        C  0.07730391  0.29390906  0.87608183     0.01000
H206        H  0.09920905  0.27990942  0.72416390     0.14800
H207        H  0.04041466  0.28762140  0.79483967     0.14800
N208        N  0.36904317  0.12320289  0.61251851    -0.01500
C209        C  0.35364462  0.12855356  0.67188422     0.01100
C210        C  0.37929922  0.13128690  0.71945787    -0.21800
C211        C  0.41175664  0.13058205  0.68921817    -0.22000
C212        C  0.40500596  0.12785371  0.62369974     0.01000
H213        H  0.37452480  0.13966980  0.76987628     0.14800
H214        H  0.43672351  0.13762489  0.71243735     0.14800
Zn215      Zn  0.23767612  0.23972005  0.83061482     1.49700
Zn216      Zn  0.24618975  0.16121115  0.74214747     1.49400
Zn217      Zn  0.20881855  0.23779617  0.68844228     1.49100
Zn218      Zn  0.29044737  0.23578164  0.71008588     1.49500
O219        O  0.24601305  0.21819435  0.74266936    -1.82100
O220        O  0.25085251  0.19814267  0.89555964    -0.72800
O221        O  0.20616229  0.13980410  0.68674538    -0.72600
O222        O  0.16945686  0.26564758  0.73985750    -0.72100
O223        O  0.24594534  0.14389036  0.83330167    -0.72800
O224        O  0.18595307  0.26142616  0.84229843    -0.72400
O225        O  0.18755051  0.19475060  0.64093482    -0.73000
O226        O  0.28440599  0.27341903  0.63751707    -0.72400
O227        O  0.29299499  0.13715927  0.70552153    -0.73100
O228        O  0.22555761  0.27173026  0.62219483    -0.72500
O229        O  0.32202967  0.18933295  0.68012165    -0.73000
O230        O  0.31497480  0.26225398  0.78429415    -0.72900
O231        O  0.27030117  0.28265112  0.85085474    -0.72700
C232        C  0.25151215  0.16096791  0.88808223     0.79100
C233        C  0.18725691  0.15812311  0.64553547     0.79600
C234        C  0.16284749  0.27114113  0.79977100     0.78600
C235        C  0.25589225  0.28376545  0.60739564     0.78900
C236        C  0.32040409  0.15250638  0.68348412     0.80100
C237        C  0.30329385  0.28177131  0.83436927     0.79100
N238        N  0.15689685  0.33631051  0.93302329    -0.01500
C239        C  0.16958183  0.34081412  0.49413846     0.01100
C240        C  0.15271870  0.31561472  0.53336406    -0.21800
C241        C  0.13073846  0.29351232  0.99546914    -0.22000
C242        C  0.13451194  0.30592298  0.93417828     0.01000
H243        H  0.15939923  0.31023014  0.58303184     0.14800
H244        H  0.11481674  0.27020232  0.01055576     0.14800
C245        C  0.24942418  0.38134064  0.57202652     0.82200
N246        N  0.26972715  0.34743879  0.57753101    -0.76100
C247        C  0.25618606  0.31314147  0.55873449     0.84700
N248        N  0.22867038  0.31363335  0.51613227    -0.76000
C249        C  0.20780794  0.34696406  0.50823909     0.84700
N250        N  0.21748175  0.38078359  0.53921801    -0.77800
N251        N  0.14982473  0.36857909  0.89341695    -0.01500
C252        C  0.16751946  0.37113941  0.83630040     0.01100
C253        C  0.14242588  0.37065176  0.78630867    -0.21800
C254        C  0.10923202  0.37775891  0.81374223    -0.22000
C255        C  0.11476686  0.37723070  0.87885474     0.01000
H256        H  0.14769811  0.37437485  0.73571336     0.14800
H257        H  0.08448441  0.38613671  0.78929652     0.14800
N258        N  0.38714934  0.03832141  0.63372115     0.00100
C259        C  0.36937399  0.03884993  0.69112669     0.01100
C260        C  0.39387633  0.53837402  0.74099663    -0.21800
C261        C  0.42748126  0.53638174  0.71368171    -0.22000
C262        C  0.42273082  0.03585471  0.64764244     0.01000
H263        H  0.38812737  0.53420107  0.79128115     0.14800
H264        H  0.45246208  0.53063764  0.73891303     0.14800
Zn265      Zn  0.30320072  0.44316736  0.72891888     1.49700
Zn266      Zn  0.21801745  0.45722107  0.72972749     1.49400
Zn267      Zn  0.25705375  0.45177666  0.86319310     1.49100
Zn268      Zn  0.26180442  0.02523721  0.76724376     1.49500
O269        O  0.26138397  0.46925739  0.77419996    -1.82100
O270        O  0.28414289  0.40992729  0.65475992    -0.72800
O271        O  0.19675141  0.41454437  0.77279771    -0.72600
O272        O  0.30391998  0.42147364  0.88143554    -0.72100
O273        O  0.22815088  0.43502384  0.64002369    -0.72800
O274        O  0.33589146  0.41047767  0.79094834    -0.72400
O275        O  0.21589582  0.41249147  0.87330530    -0.73000
O276        O  0.25757518  0.04796091  0.85583948    -0.72400
O277        O  0.18016311  0.50235210  0.72558150    -0.73100
O278        O  0.25317219  0.00135756  0.92641546    -0.72500
O279        O  0.21935110  0.04776046  0.71633870    -0.73000
O280        O  0.30915520  0.04095322  0.72977514    -0.72900
O281        O  0.33495107  0.48359154  0.69372964    -0.72700
C282        C  0.25463471  0.41149197  0.62310560     0.79100
C283        C  0.19578346  0.39994298  0.82774761     0.79600
C284        C  0.33206704  0.40683370  0.85154642     0.78600
C285        C  0.25453867  0.03743589  0.91336527     0.78900
C286        C  0.18782054  0.53576000  0.70776347     0.80100
C287        C  0.33510218  0.52074132  0.70174572     0.79100
C288        C  0.25933184  0.13581703  0.94233029     0.82200
N289        N  0.29269917  0.13481024  0.97019736    -0.76100
C290        C  0.30493598  0.10266708  0.00203219     0.84700
N291        N  0.28446293  0.07077978  0.00078279    -0.76000
C292        C  0.25466959  0.06946818  0.96344638     0.84700
N293        N  0.23969697  0.10385773  0.94409723    -0.77800
N294        N  0.35792131  0.09137597  0.57226129    -0.01500
C295        C  0.34427253  0.09423183  0.51176063     0.01100
C296        C  0.35734666  0.06105420  0.97503849    -0.21800
C297        C  0.37304596  0.03493615  0.51624276    -0.22000
C298        C  0.37266363  0.05427943  0.57571357     0.01000
H299        H  0.34892381  0.05285686  0.92657352     0.14800
H300        H  0.38169341  0.00471089  0.50446365     0.14800
N301        N  0.12911289  0.13383278  0.61138572    -0.01500
C302        C  0.11210825  0.13332173  0.55379513     0.01100
C303        C  0.13773890  0.13438383  0.50523825    -0.21800
C304        C  0.17033914  0.13860432  0.53473315    -0.22000
C305        C  0.16433585  0.13795494  0.59999646     0.01000
H306        H  0.13266770  0.13859266  0.45471974     0.14800
H307        H  0.19437316  0.14744943  0.51189348     0.14800
N308        N  0.36505622  0.29758421  0.86965359    -0.01500
C309        C  0.38079129  0.29212782  0.92781263     0.01100
C310        C  0.35490987  0.29176016  0.97528983    -0.21800
C311        C  0.32233914  0.29535981  0.94529627    -0.22000
C312        C  0.32903457  0.29786613  0.88040150     0.01000
H313        H  0.35913213  0.28314970  0.02431215     0.14800
H314        H  0.29715290  0.28858748  0.96619524     0.14800
Zn315      Zn  0.50171801  0.18888751  0.58319162     1.49700
Zn316      Zn  0.44854837  0.18629848  0.95702060     1.49400
Zn317      Zn  0.98865790  0.26574499  0.99787275     1.49100
Zn318      Zn  0.03228432  0.19208275  0.94197598     1.49500
O319        O  0.99192807  0.20827331  0.49637432    -1.82100
O320        O  0.46094960  0.15451504  0.60379051    -0.72800
O321        O  0.41524801  0.23198822  0.92814938    -0.72600
O322        O  0.49262379  0.28591461  0.58845535    -0.72100
O323        O  0.42080520  0.15660266  0.52416165    -0.72800
O324        O  0.49963602  0.23529510  0.65148513    -0.72400
O325        O  0.44077534  0.28611628  0.96435927    -0.73000
O326        O  0.06028121  0.23577422  0.91579752    -0.72400
O327        O  0.46256320  0.14758859  0.88063240    -0.73100
O328        O  0.02763821  0.28964633  0.94700414    -0.72500
O329        O  0.01880548  0.16262134  0.86246012    -0.73000
O330        O  0.06760017  0.15800065  0.48548363    -0.72900
O331        O  0.05242367  0.15912562  0.58875205    -0.72700
C332        C  0.43043006  0.14603943  0.58006057     0.79100
C333        C  0.41486634  0.26922891  0.93731988     0.79600
C334        C  0.49650743  0.27212229  0.64388661     0.78600
C335        C  0.05490224  0.27265671  0.91827787     0.78900
C336        C  0.99177867  0.14322395  0.84786745     0.80100
C337        C  0.07473188  0.14946070  0.54287351     0.79100
C338        C  0.01477067  0.04531651  0.81831933     0.82200
N339        N  0.98936688  0.07550794  0.81916981    -0.76100
C340        C  0.99792509  0.11072588  0.79931487     0.84700
N341        N  0.02761530  0.11197791  0.76131268    -0.76000
C342        C  0.05352768  0.08192607  0.75835203     0.84700
N343        N  0.04706091  0.04878261  0.78823657    -0.77800
N344        N  0.10556938  0.08806011  0.68561886    -0.01500
C345        C  0.09125954  0.09199114  0.74614984     0.01100
C346        C  0.09919678  0.12852759  0.77338693    -0.21800
C347        C  0.11267986  0.14967569  0.72559922    -0.22000
C348        C  0.11446922  0.12461850  0.67202382     0.01000
H349        H  0.08951236  0.14125625  0.81944621     0.14800
H350        H  0.11902787  0.18009381  0.72888545     0.14800
N351        N  0.12692649  0.05449258  0.66101893    -0.01500
C352        C  0.11995982  0.04112880  0.59993453     0.01100
C353        C  0.14991571  0.54020282  0.56056898    -0.21800
C354        C  0.17764994  0.54987966  0.59909349    -0.22000
C355        C  0.16394096  0.05526435  0.66108816     0.01000
H356        H  0.15238461  0.52868620  0.51109654     0.14800
H357        H  0.20580191  0.54560271  0.58535480     0.14800
N358        N  0.39584854  0.37730482  0.87376251    -0.01500
C359        C  0.41448250  0.37703285  0.93021680     0.01100
C360        C  0.39093765  0.38149028  0.98205875    -0.21800
C361        C  0.35738654  0.38933560  0.95801405    -0.22000
C362        C  0.36097181  0.38819912  0.89180577     0.01000
H363        H  0.39817674  0.38623272  0.03226299     0.14800
H364        H  0.33367749  0.39901470  0.98623910     0.14800
Zn365      Zn  0.05788179  0.47578599  0.96628859     1.49700
Zn366      Zn  0.02072414  0.40043895  0.00241842     1.49400
Zn367      Zn  0.52322083  0.47596608  0.60258580     1.49100
Zn368      Zn  0.47395398  0.47937589  0.97373296     1.49500
O369        O  0.01821950  0.45750543  0.51164838    -1.82100
O370        O  0.09069805  0.43355223  0.93147429    -0.72800
O371        O  0.02015692  0.38011138  0.59138996    -0.72600
O372        O  0.06763330  0.50657885  0.62128859    -0.72100
O373        O  0.06388274  0.37877659  0.94850622    -0.72800
O374        O  0.08604724  0.01076684  0.52044927    -0.72400
O375        O  0.51772522  0.43152545  0.66190783    -0.73000
O376        O  0.44465545  0.50994695  0.54465189    -0.72400
O377        O  0.47557583  0.38037369  0.96096800    -0.73100
O378        O  0.48186333  0.51145317  0.62806307    -0.72500
O379        O  0.44387096  0.43560829  0.94071288    -0.73000
O380        O  0.48395808  0.01330127  0.89895873    -0.72900
O381        O  0.04339436  0.00422300  0.89056664    -0.72700
C382        C  0.08903094  0.39692322  0.92398882     0.79100
C383        C  0.51631834  0.39498076  0.64879558     0.79600
C384        C  0.08881562  0.51939245  0.58018541     0.78600
C385        C  0.45143620  0.51973847  0.60319837     0.78900
C386        C  0.44720647  0.39834635  0.94061099     0.80100
C387        C  0.01359880  0.01864702  0.87069713     0.79100
N388        N  0.40350379  0.34671221  0.82584455    -0.01500
C389        C  0.41693527  0.35309441  0.76645434     0.01100
C390        C  0.39650022  0.33348996  0.72067358    -0.21800
C391        C  0.37592711  0.30866776  0.75239729    -0.22000
C392        C  0.38145970  0.31661045  0.81720013     0.01000
H393        H  0.40245853  0.33009004  0.66956895     0.14800
H394        H  0.36179242  0.28555819  0.72888709     0.14800
C395        C  0.49809964  0.30113713  0.69823144     0.82200
N396        N  0.46827617  0.30884637  0.73556516    -0.76100
C397        C  0.45626075  0.34653177  0.75271636     0.84700
N398        N  0.47522848  0.37640024  0.73195485    -0.76000
C399        C  0.50685863  0.36854413  0.69871521     0.84700
N400        N  0.01929457  0.33083375  0.68787547    -0.77800
N401        N  0.11385223  0.79212296  0.37961681    -0.01500
C402        C  0.12625952  0.78608377  0.31846470     0.01100
C403        C  0.09794386  0.78683071  0.27559027    -0.21800
C404        C  0.06720133  0.79231828  0.31211947    -0.22000
C405        C  0.07730946  0.79391413  0.37605958     0.01000
H406        H  0.09920449  0.77993057  0.22413408     0.14800
H407        H  0.04041534  0.78763887  0.29482595     0.14800
N408        N  0.36902616  0.62319468  0.11250044    -0.01500
C409        C  0.35362091  0.62854567  0.17185994     0.01100
C410        C  0.37926989  0.63128383  0.21944274    -0.21800
C411        C  0.41173005  0.63058534  0.18921462    -0.22000
C412        C  0.40498631  0.62785448  0.12369404     0.01000
H413        H  0.37448884  0.63966848  0.26985991     0.14800
H414        H  0.43669350  0.63763410  0.21244257     0.14800
Zn415      Zn  0.23767992  0.73973197  0.33056497     1.49700
Zn416      Zn  0.24617221  0.66121780  0.24212972     1.49400
Zn417      Zn  0.20880975  0.73779525  0.18839453     1.49100
Zn418      Zn  0.29043839  0.73578018  0.21003030     1.49500
O419        O  0.24600496  0.71819836  0.24262466    -1.82100
O420        O  0.25086757  0.69816212  0.39552519    -0.72800
O421        O  0.20613835  0.63981093  0.18673796    -0.72600
O422        O  0.16944963  0.76564325  0.23981467    -0.72100
O423        O  0.24593421  0.64390528  0.33329197    -0.72800
O424        O  0.18595757  0.76143687  0.34225272    -0.72400
O425        O  0.18754501  0.69474841  0.14088173    -0.73000
O426        O  0.28439182  0.77342766  0.13747533    -0.72400
O427        O  0.29297478  0.63716085  0.20550684    -0.73100
O428        O  0.22554276  0.77173824  0.12215947    -0.72500
O429        O  0.32200813  0.68932566  0.18005233    -0.73000
O430        O  0.31498043  0.76223943  0.28424034    -0.72900
O431        O  0.27030280  0.78266949  0.35077071    -0.72700
C432        C  0.25151725  0.66098684  0.38806310     0.79100
C433        C  0.18724214  0.65812341  0.14550733     0.79600
C434        C  0.16284698  0.77114477  0.29972917     0.78600
C435        C  0.25587574  0.78377824  0.10736350     0.78900
C436        C  0.32038139  0.65250106  0.18344490     0.80100
C437        C  0.30329931  0.78176852  0.33430510     0.79100
N438        N  0.15691383  0.83629063  0.43301243    -0.01500
C439        C  0.16955781  0.84085797  0.99414975     0.01100
C440        C  0.15268942  0.81567305  0.03339404    -0.21800
C441        C  0.13075984  0.79347252  0.49542879    -0.22000
C442        C  0.13452446  0.80590590  0.43415074     0.01000
H443        H  0.15936409  0.81030625  0.08307186     0.14800
H444        H  0.11483829  0.77015845  0.51049945     0.14800
C445        C  0.24941009  0.88136408  0.07204171     0.82200
N446        N  0.26970912  0.84745850  0.07753183    -0.76100
C447        C  0.25616389  0.81316570  0.05872183     0.84700
N448        N  0.22864477  0.81366707  0.01612677    -0.76000
C449        C  0.20778509  0.84700161  0.00825111     0.84700
N450        N  0.21746420  0.88081546  0.03924208    -0.77800
N451        N  0.14984379  0.86857311  0.39343389    -0.01500
C452        C  0.16753597  0.87114579  0.33631686     0.01100
C453        C  0.14244049  0.87066410  0.28632820    -0.21800
C454        C  0.10924802  0.87776671  0.31376761    -0.22000
C455        C  0.11478545  0.87722850  0.37887838     0.01000
H456        H  0.14771016  0.87439531  0.23573379     0.14800
H457        H  0.08449900  0.88614815  0.28932795     0.14800
N458        N  0.38715385  0.53832288  0.13373839     0.00100
C459        C  0.36938026  0.53884981  0.19114417     0.01100
C460        C  0.39388468  0.03837645  0.24101281    -0.21800
C461        C  0.42748894  0.03638930  0.21369532    -0.22000
C462        C  0.42273515  0.53586204  0.14765667     0.01000
H463        H  0.38813724  0.03420235  0.29129752     0.14800
H464        H  0.45247014  0.03064623  0.23892287     0.14800
Zn465      Zn  0.30320677  0.94317136  0.22893452     1.49700
Zn466      Zn  0.21802723  0.95723790  0.22975296     1.49400
Zn467      Zn  0.25706916  0.95178883  0.36321471     1.49100
Zn468      Zn  0.26181122  0.52524920  0.26725412     1.49500
O469        O  0.26139562  0.96926895  0.27422100    -1.82100
O470        O  0.28413967  0.90993590  0.15477586    -0.72800
O471        O  0.19676626  0.91455597  0.27281968    -0.72600
O472        O  0.30393301  0.92147587  0.38145012    -0.72100
O473        O  0.22815445  0.93505230  0.14004261    -0.72800
O474        O  0.33589752  0.91047358  0.29095663    -0.72400
O475        O  0.21590773  0.91250517  0.37332949    -0.73000
O476        O  0.25758218  0.54797797  0.35584554    -0.72400
O477        O  0.18017116  0.00236795  0.22561662    -0.73100
O478        O  0.25319301  0.50137693  0.42643107    -0.72500
O479        O  0.21936083  0.54776852  0.21633255    -0.73000
O480        O  0.30916246  0.54095851  0.22978927    -0.72900
O481        O  0.33495753  0.98359372  0.19374568    -0.72700
C482        C  0.25463110  0.91151146  0.12312259     0.79100
C483        C  0.19579768  0.89995416  0.32776960     0.79600
C484        C  0.33207568  0.90682874  0.35155528     0.78600
C485        C  0.25455319  0.53745537  0.41337422     0.78900
C486        C  0.18783028  0.03576886  0.20777009     0.80100
C487        C  0.33511007  0.02074342  0.20176208     0.79100
C488        C  0.25934256  0.63583925  0.44231670     0.82200
N489        N  0.29271034  0.63483693  0.47018348    -0.76100
C490        C  0.30494879  0.60269745  0.50202810     0.84700
N491        N  0.28447855  0.57080790  0.50078356    -0.76000
C492        C  0.25468462  0.56949163  0.46344930     0.84700
N493        N  0.23970952  0.60387893  0.44409447    -0.77800
N494        N  0.35791607  0.59135807  0.07225260    -0.01500
C495        C  0.34425959  0.59419805  0.01175564     0.01100
C496        C  0.35736354  0.56109679  0.47502675    -0.21800
C497        C  0.37303808  0.53490678  0.01626581    -0.22000
C498        C  0.37266314  0.55426532  0.07572368     0.01000
H499        H  0.34894695  0.55291214  0.42655212     0.14800
H500        H  0.38168713  0.50467941  0.00450419     0.14800
N501        N  0.12909607  0.63382764  0.11137959    -0.01500
C502        C  0.11208646  0.63330408  0.05379381     0.01100
C503        C  0.13771324  0.63435968  0.00522843    -0.21800
C504        C  0.17031533  0.63858961  0.03471265    -0.22000
C505        C  0.16431762  0.63795030  0.09997889     0.01000
H506        H  0.13263776  0.63855899  0.95470899     0.14800
H507        H  0.19434677  0.64743198  0.01186101     0.14800
N508        N  0.36506136  0.79756888  0.36961951    -0.01500
C509        C  0.38079129  0.79210300  0.42778070     0.01100
C510        C  0.35490483  0.79172343  0.47524704    -0.21800
C511        C  0.32233654  0.79532845  0.44524530    -0.22000
C512        C  0.32903880  0.79784808  0.38035506     0.01000
H513        H  0.35912272  0.78310581  0.52426739     0.14800
H514        H  0.29714722  0.78855700  0.46613319     0.14800
Zn515      Zn  0.50170308  0.68888890  0.08320831     1.49700
Zn516      Zn  0.44856224  0.68628551  0.45700866     1.49400
Zn517      Zn  0.98866370  0.76574153  0.49785007     1.49100
Zn518      Zn  0.03229819  0.69207745  0.44195082     1.49500
O519        O  0.99191472  0.70827780  0.99639452    -1.82100
O520        O  0.46092967  0.65452013  0.10379878    -0.72800
O521        O  0.41525583  0.73196904  0.42813634    -0.72600
O522        O  0.49263139  0.78591539  0.08846780    -0.72100
O523        O  0.42078876  0.65661029  0.02416355    -0.72800
O524        O  0.49962988  0.73529736  0.15150327    -0.72400
O525        O  0.44077964  0.78610517  0.46431842    -0.73000
O526        O  0.06028134  0.73577412  0.41574920    -0.72400
O527        O  0.46257488  0.64757088  0.38062424    -0.73100
O528        O  0.02764950  0.78964689  0.44699517    -0.72500
O529        O  0.01882097  0.66259201  0.36245487    -0.73000
O530        O  0.06757560  0.65798172  0.98548669    -0.72900
O531        O  0.05240693  0.65912038  0.08875997    -0.72700
C532        C  0.43041151  0.64604447  0.08006246     0.79100
C533        C  0.41487057  0.76921080  0.43729101     0.79600
C534        C  0.49651226  0.77212462  0.14389982     0.78600
C535        C  0.05490799  0.77265750  0.41825031     0.78900
C536        C  0.99179126  0.64319859  0.34786292     0.80100
C537        C  0.07471023  0.64944604  0.04287733     0.79100
C538        C  0.01478235  0.54528985  0.31832120     0.82200
N539        N  0.98937817  0.57548117  0.31917570    -0.76100
C540        C  0.99793325  0.61069825  0.29931268     0.84700
N541        N  0.02761967  0.61194875  0.26130142    -0.76000
C542        C  0.05353511  0.58190011  0.25834763     0.84700
N543        N  0.04707192  0.54875749  0.28823757    -0.77800
N544        N  0.10557165  0.58804570  0.18561438    -0.01500
C545        C  0.09126514  0.59197037  0.24614733     0.01100
C546        C  0.09919654  0.62850830  0.27338669    -0.21800
C547        C  0.11266971  0.64966292  0.22559776    -0.22000
C548        C  0.11446130  0.62460735  0.17202066     0.01000
H549        H  0.08951277  0.64123271  0.31944909     0.14800
H550        H  0.11900990  0.68008335  0.22888475     0.14800
N551        N  0.12693492  0.55448456  0.16100829    -0.01500
C552        C  0.11996974  0.54111935  0.09992433     0.01100
C553        C  0.14992805  0.04019084  0.06056291    -0.21800
C554        C  0.17766076  0.04987215  0.09908879    -0.22000
C555        C  0.16394891  0.55526142  0.16108076     0.01000
H556        H  0.15239788  0.02867359  0.01109219     0.14800
H557        H  0.20581381  0.04559706  0.08535252     0.14800
N558        N  0.39585504  0.87729013  0.37376412    -0.01500
C559        C  0.41448966  0.87701273  0.43021735     0.01100
C560        C  0.39094461  0.88146488  0.48205980    -0.21800
C561        C  0.35739298  0.88931121  0.45801616    -0.22000
C562        C  0.36097803  0.88818252  0.39180821     0.01000
H563        H  0.39818341  0.88620330  0.53226317     0.14800
H564        H  0.33368373  0.89898836  0.48624375     0.14800
Zn565      Zn  0.05789000  0.97577195  0.46630836     1.49700
Zn566      Zn  0.02073221  0.90042209  0.50242740     1.49400
Zn567      Zn  0.52322122  0.97597663  0.10257859     1.49100
Zn568      Zn  0.47396189  0.97935546  0.47373411     1.49500
O569        O  0.01821495  0.95752228  0.01163877    -1.82100
O570        O  0.09071779  0.93354146  0.43152164    -0.72800
O571        O  0.02015435  0.88012157  0.09137620    -0.72600
O572        O  0.06763512  0.00658543  0.12127523    -0.72100
O573        O  0.06389614  0.87876449  0.44851847    -0.72800
O574        O  0.08605220  0.51076656  0.02043488    -0.72400
O575        O  0.51772781  0.93153314  0.16189778    -0.73000
O576        O  0.44465661  0.00996270  0.04466209    -0.72400
O577        O  0.47558351  0.88035310  0.46097519    -0.73100
O578        O  0.48186806  0.01146390  0.12806877    -0.72500
O579        O  0.44388001  0.93558721  0.44071349    -0.73000
O580        O  0.48396981  0.51327530  0.39895804    -0.72900
O581        O  0.04340630  0.50419610  0.39056887    -0.72700
C582        C  0.08904934  0.89691336  0.42402068     0.79100
C583        C  0.51631944  0.89498880  0.14878350     0.79600
C584        C  0.08882224  0.01939157  0.08017272     0.78600
C585        C  0.45144023  0.01975047  0.10320872     0.78900
C586        C  0.44721449  0.89832545  0.44061504     0.80100
C587        C  0.01361094  0.51861961  0.37069721     0.79100
N588        N  0.40351151  0.84670336  0.32583710    -0.01500
C589        C  0.41694511  0.85309423  0.26645268     0.01100
C590        C  0.39651317  0.83349444  0.22066146    -0.21800
C591        C  0.37593766  0.80866858  0.25237215    -0.22000
C592        C  0.38146825  0.81660200  0.31717769     0.01000
H593        H  0.40247388  0.83010166  0.16955622     0.14800
H594        H  0.36180061  0.78556295  0.22885259     0.14800
C595        C  0.49810975  0.80114246  0.19823808     0.82200
N596        N  0.46829038  0.80885120  0.23558192    -0.76100
C597        C  0.45627095  0.84653667  0.25272152     0.84700
N598        N  0.47523367  0.87640556  0.23194748    -0.76000
C599        C  0.50686245  0.86855083  0.19870354     0.84700
N600        N  0.01930022  0.83084086  0.18786586    -0.77800
N601        N  0.11384701  0.79212212  0.87964695    -0.01500
C602        C  0.12625823  0.78607693  0.81849800     0.01100
C603        C  0.09794519  0.78681455  0.77561761    -0.21800
C604        C  0.06719990  0.79230313  0.81213901    -0.22000
C605        C  0.07730454  0.79390850  0.87608160     0.01000
H606        H  0.09920979  0.77990892  0.72416378     0.14800
H607        H  0.04041539  0.78762078  0.79483928     0.14800
N608        N  0.36904370  0.62320289  0.61251848    -0.01500
C609        C  0.35364541  0.62855366  0.67188435     0.01100
C610        C  0.37930024  0.63128691  0.71945737    -0.21800
C611        C  0.41175761  0.63058160  0.68921756    -0.22000
C612        C  0.40500658  0.62785329  0.62369909     0.01000
H613        H  0.37452593  0.63967014  0.76987711     0.14800
H614        H  0.43672432  0.63762418  0.71243605     0.14800
Zn615      Zn  0.23767659  0.73971985  0.83061400     1.49700
Zn616      Zn  0.24619020  0.66121075  0.74214658     1.49400
Zn617      Zn  0.20881877  0.73779601  0.68844183     1.49100
Zn618      Zn  0.29044764  0.73578145  0.71008572     1.49500
O619        O  0.24601331  0.71819403  0.74266875    -1.82100
O620        O  0.25085293  0.69814263  0.89555861    -0.72800
O621        O  0.20616268  0.63980386  0.68674426    -0.72600
O622        O  0.16945739  0.76564771  0.73985724    -0.72100
O623        O  0.24594556  0.64389018  0.83330100    -0.72800
O624        O  0.18595361  0.76142577  0.84229805    -0.72400
O625        O  0.18755039  0.69475057  0.64093478    -0.73000
O626        O  0.28440630  0.77341857  0.63751647    -0.72400
O627        O  0.29299558  0.63715899  0.70552103    -0.73100
O628        O  0.22555789  0.77173004  0.62219432    -0.72500
O629        O  0.32203029  0.68933287  0.68012225    -0.73000
O630        O  0.31497519  0.76225412  0.78429346    -0.72900
O631        O  0.27030168  0.78265087  0.85085446    -0.72700
C632        C  0.25151241  0.66096787  0.88808148     0.79100
C633        C  0.18725692  0.65812303  0.64553499     0.79600
C634        C  0.16284809  0.77114105  0.79977069     0.78600
C635        C  0.25589259  0.78376508  0.60739505     0.78900
C636        C  0.32040478  0.65250629  0.68348438     0.80100
C637        C  0.30329428  0.78177138  0.83436870     0.79100
N638        N  0.15689764  0.83631042  0.93302226    -0.01500
C639        C  0.16958250  0.84081449  0.49413746     0.01100
C640        C  0.15271902  0.81561572  0.53336357    -0.21800
C641        C  0.13073887  0.79351308  0.99546901    -0.22000
C642        C  0.13451247  0.80592302  0.93417801     0.01000
H643        H  0.15939946  0.81023147  0.58303197     0.14800
H644        H  0.11481644  0.77020272  0.01055647     0.14800
C645        C  0.24942534  0.88134034  0.57202494     0.82200
N646        N  0.26972790  0.84743827  0.57753003    -0.76100
C647        C  0.25618647  0.81314103  0.55873383     0.84700
N648        N  0.22867077  0.81363303  0.51613173    -0.76000
C649        C  0.20780871  0.84696395  0.50823797     0.84700
N650        N  0.21748299  0.88078354  0.53921614    -0.77800
N651        N  0.14982557  0.86857872  0.89341564    -0.01500
C652        C  0.16752033  0.87113893  0.83629893     0.01100
C653        C  0.14242665  0.87065152  0.78630763    -0.21800
C654        C  0.10923283  0.87775889  0.81374096    -0.22000
C655        C  0.11476771  0.87723057  0.87885352     0.01000
H656        H  0.14769904  0.87437471  0.73571062     0.14800
H657        H  0.08448529  0.88613683  0.78929550     0.14800
N658        N  0.38714861  0.53832131  0.63372129     0.00100
C659        C  0.36937321  0.53885003  0.69112679     0.01100
C660        C  0.39387710  0.03837420  0.74099647    -0.21800
C661        C  0.42748220  0.03638219  0.71368175    -0.22000
C662        C  0.42273014  0.53585433  0.64764265     0.01000
H663        H  0.38812829  0.03420115  0.79128138     0.14800
H664        H  0.45246187  0.03063847  0.73891179     0.14800
Zn665      Zn  0.30320172  0.94316688  0.72891798     1.49700
Zn666      Zn  0.21801854  0.95722054  0.72972615     1.49400
Zn667      Zn  0.25705469  0.95177618  0.86319225     1.49100
Zn668      Zn  0.26180355  0.52523764  0.76724418     1.49500
O669        O  0.26138495  0.96925692  0.77419918    -1.82100
O670        O  0.28414396  0.90992677  0.65475886    -0.72800
O671        O  0.19675267  0.91454356  0.77279622    -0.72600
O672        O  0.30392094  0.92147340  0.88143484    -0.72100
O673        O  0.22815219  0.93502380  0.64002199    -0.72800
O674        O  0.33589255  0.91047741  0.79094779    -0.72400
O675        O  0.21589663  0.91249100  0.87330417    -0.73000
O676        O  0.25757457  0.54796129  0.85583991    -0.72400
O677        O  0.18016401  0.00235144  0.72558043    -0.73100
O678        O  0.25317157  0.50135802  0.92641608    -0.72500
O679        O  0.21935036  0.54776083  0.71633877    -0.73000
O680        O  0.30915433  0.54095361  0.72977506    -0.72900
O681        O  0.33495189  0.98359129  0.69372877    -0.72700
C682        C  0.25463593  0.91149173  0.62310408     0.79100
C683        C  0.19578448  0.89994234  0.82774628     0.79600
C684        C  0.33206804  0.90683355  0.85154600     0.78600
C685        C  0.25453824  0.53743629  0.91336577     0.78900
C686        C  0.18782131  0.03575959  0.70776322     0.80100
C687        C  0.33510303  0.02074105  0.70174552     0.79100
C688        C  0.25933201  0.63581729  0.94232979     0.82200
N689        N  0.29269938  0.63481044  0.97019681    -0.76100
C690        C  0.30493610  0.60266739  0.00203181     0.84700
N691        N  0.28446300  0.57078012  0.00078280    -0.76000
C692        C  0.25466947  0.56946862  0.96344667     0.84700
N693        N  0.23969701  0.60385810  0.94409733    -0.77800
N694        N  0.35792122  0.59137612  0.57226133    -0.01500
C695        C  0.34427263  0.59423219  0.51176061     0.01100
C696        C  0.35734667  0.56105433  0.97503833    -0.21800
C697        C  0.37304553  0.53493622  0.51624292    -0.22000
C698        C  0.37266308  0.55427948  0.57571381     0.01000
H699        H  0.34892386  0.55285704  0.92657288     0.14800
H700        H  0.38169275  0.50471114  0.50446399     0.14800
N701        N  0.12911276  0.63383279  0.61138500    -0.01500
C702        C  0.11210825  0.63332124  0.55379439     0.01100
C703        C  0.13773894  0.63438314  0.50523717    -0.21800
C704        C  0.17033898  0.63860405  0.53473269    -0.22000
C705        C  0.16433577  0.63795499  0.59999588     0.01000
H706        H  0.13266797  0.63859144  0.45472033     0.14800
H707        H  0.19437368  0.64744940  0.51189223     0.14800
N708        N  0.36505672  0.79758437  0.86965281    -0.01500
C709        C  0.38079175  0.79212796  0.92781180     0.01100
C710        C  0.35491028  0.79176052  0.97528901    -0.21800
C711        C  0.32233965  0.79536045  0.94529536    -0.22000
C712        C  0.32903503  0.79786651  0.88040061     0.01000
H713        H  0.35913247  0.78315009  0.02431127     0.14800
H714        H  0.29715295  0.78858819  0.96619466     0.14800
Zn715      Zn  0.50171823  0.68888728  0.58319022     1.49700
Zn716      Zn  0.44854834  0.68629845  0.95702004     1.49400
Zn717      Zn  0.98865835  0.76574454  0.99787177     1.49100
Zn718      Zn  0.03228435  0.69208200  0.94197502     1.49500
O719        O  0.99192823  0.70827298  0.49637320    -1.82100
O720        O  0.46095014  0.65451475  0.60378937    -0.72800
O721        O  0.41524818  0.73198827  0.92814892    -0.72600
O722        O  0.49262418  0.78591425  0.58845395    -0.72100
O723        O  0.42080545  0.65660245  0.52416105    -0.72800
O724        O  0.49963618  0.73529472  0.65148370    -0.72400
O725        O  0.44077591  0.78611621  0.96435814    -0.73000
O726        O  0.06028168  0.73577350  0.91579705    -0.72400
O727        O  0.46256303  0.64758846  0.88063192    -0.73100
O728        O  0.02763890  0.78964574  0.94700376    -0.72500
O729        O  0.01880521  0.66262115  0.86245899    -0.73000
O730        O  0.06760003  0.65799931  0.48548212    -0.72900
O731        O  0.05242388  0.65912571  0.58875083    -0.72700
C732        C  0.43043053  0.64603913  0.58005975     0.79100
C733        C  0.41486672  0.76922892  0.93731910     0.79600
C734        C  0.49650768  0.77212191  0.64388526     0.78600
C735        C  0.05490290  0.77265606  0.91827757     0.78900
C736        C  0.99177835  0.64322386  0.84786654     0.80100
C737        C  0.07473189  0.64946011  0.54287229     0.79100
C738        C  0.01477014  0.54531649  0.81831847     0.82200
N739        N  0.98936630  0.57550790  0.81916852    -0.76100
C740        C  0.99792454  0.61072585  0.79931372     0.84700
N741        N  0.02761477  0.61197787  0.76131146    -0.76000
C742        C  0.05352727  0.58192615  0.75835143     0.84700
N743        N  0.04706049  0.54878273  0.78823609    -0.77800
N744        N  0.10556902  0.58806023  0.68561813    -0.01500
C745        C  0.09125909  0.59199136  0.74614924     0.01100
C746        C  0.09919639  0.62852776  0.77338594    -0.21800
C747        C  0.11267958  0.64967580  0.72559852    -0.22000
C748        C  0.11446905  0.62461859  0.67202324     0.01000
H749        H  0.08951162  0.64125687  0.81944655     0.14800
H750        H  0.11902764  0.68009411  0.72888470     0.14800
N751        N  0.12692593  0.55449267  0.66101835    -0.01500
C752        C  0.11995930  0.54112885  0.59993387     0.01100
C753        C  0.14991616  0.04020302  0.56056939    -0.21800
C754        C  0.17765026  0.04987996  0.59909390    -0.22000
C755        C  0.16394040  0.55526428  0.66108768     0.01000
H756        H  0.15238496  0.02868662  0.51109715     0.14800
H757        H  0.20580289  0.04560306  0.58535463     0.14800
N758        N  0.39584955  0.87730475  0.87376264    -0.01500
C759        C  0.41448344  0.87703282  0.93021689     0.01100
C760        C  0.39093863  0.88149052  0.98205919    -0.21800
C761        C  0.35738750  0.88933615  0.95801399    -0.22000
C762        C  0.36097284  0.88819928  0.89180565     0.01000
H763        H  0.39817740  0.88623272  0.03226131     0.14800
H764        H  0.33367869  0.89901543  0.98623878     0.14800
Zn765      Zn  0.05788259  0.97578600  0.96628890     1.49700
Zn766      Zn  0.02072517  0.90043878  0.00241806     1.49400
Zn767      Zn  0.52322152  0.97596591  0.60258615     1.49100
Zn768      Zn  0.47395490  0.97937599  0.97373371     1.49500
O769        O  0.01822035  0.95750549  0.51164845    -1.82100
O770        O  0.09069878  0.93355222  0.93147298    -0.72800
O771        O  0.02015794  0.88011124  0.59138952    -0.72600
O772        O  0.06763377  0.00657885  0.62128904    -0.72100
O773        O  0.06388398  0.87877645  0.94850607    -0.72800
O774        O  0.08604640  0.51076721  0.52044872    -0.72400
O775        O  0.51772596  0.93152514  0.66190776    -0.73000
O776        O  0.44465631  0.00994734  0.54465176    -0.72400
O777        O  0.47557690  0.88037344  0.96096747    -0.73100
O778        O  0.48186387  0.01145277  0.62806344    -0.72500
O779        O  0.44387194  0.93560823  0.94071382    -0.73000
O780        O  0.48395746  0.51330138  0.89895817    -0.72900
O781        O  0.04339371  0.50422272  0.89056572    -0.72700
C782        C  0.08903189  0.89692314  0.92398788     0.79100
C783        C  0.51631920  0.89498048  0.64879527     0.79600
C784        C  0.08881625  0.01939228  0.58018591     0.78600
C785        C  0.45143692  0.01973853  0.60319847     0.78900
C786        C  0.44720748  0.89834625  0.94061114     0.80100
C787        C  0.01359819  0.51864697  0.87069636     0.79100
N788        N  0.40350478  0.84671219  0.82584461    -0.01500
C789        C  0.41693615  0.85309466  0.76645437     0.01100
C790        C  0.39650061  0.83349098  0.72067363    -0.21800
C791        C  0.37592727  0.80866905  0.75239685    -0.22000
C792        C  0.38146032  0.81661078  0.81719960     0.01000
H793        H  0.40245877  0.83009143  0.66956768     0.14800
H794        H  0.36179148  0.78555955  0.72888574     0.14800
C795        C  0.49809994  0.80113672  0.69823016     0.82200
N796        N  0.46827649  0.80884613  0.73556399    -0.76100
C797        C  0.45626153  0.84653155  0.75271591     0.84700
N798        N  0.47522950  0.87639995  0.73195484    -0.76000
C799        C  0.50685950  0.86854365  0.69871468     0.84700
N800        N  0.01929505  0.83083322  0.68787443    -0.77800
N801        N  0.61385162  0.29212324  0.37961700    -0.01500
C802        C  0.62625885  0.28608390  0.31846494     0.01100
C803        C  0.59794313  0.28683095  0.27559057    -0.21800
C804        C  0.56720051  0.29231879  0.31211991    -0.22000
C805        C  0.57730889  0.29391469  0.37606007     0.01000
H806        H  0.59920358  0.27993078  0.22413458     0.14800
H807        H  0.54041534  0.28763955  0.29482732     0.14800
N808        N  0.86902574  0.12319480  0.11250066    -0.01500
C809        C  0.85362031  0.12854572  0.17186004     0.01100
C810        C  0.87926908  0.13128401  0.21944333    -0.21800
C811        C  0.91172946  0.13058587  0.18921539    -0.22000
C812        C  0.90498584  0.12785495  0.12369471     0.01000
H813        H  0.87448801  0.13966843  0.26985917     0.14800
H814        H  0.93669218  0.13763462  0.21244312     0.14800
Zn815      Zn  0.73767945  0.23973220  0.33056544     1.49700
Zn816      Zn  0.74617180  0.16121813  0.24213062     1.49400
Zn817      Zn  0.70880933  0.23779545  0.18839493     1.49100
Zn818      Zn  0.79043796  0.23578037  0.21003037     1.49500
O819        O  0.74600459  0.21819869  0.24262514    -1.82100
O820        O  0.75086714  0.19816234  0.39552600    -0.72800
O821        O  0.70613808  0.13981132  0.18673886    -0.72600
O822        O  0.66944888  0.26564308  0.23981484    -0.72100
O823        O  0.74593397  0.14390554  0.33329270    -0.72800
O824        O  0.68595705  0.26143727  0.34225287    -0.72400
O825        O  0.68754531  0.19474854  0.14088128    -0.73000
O826        O  0.78439133  0.27342815  0.13747585    -0.72400
O827        O  0.79297430  0.13716124  0.20550738    -0.73100
O828        O  0.72554230  0.27173854  0.12215994    -0.72500
O829        O  0.82200766  0.18932584  0.18005184    -0.73000
O830        O  0.81498001  0.26223916  0.28424086    -0.72900
O831        O  0.77030234  0.28266972  0.35077083    -0.72700
C832        C  0.75151699  0.16098702  0.38806386     0.79100
C833        C  0.68724233  0.15812359  0.14550737     0.79600
C834        C  0.66284632  0.27114484  0.29972929     0.78600
C835        C  0.75587526  0.28377865  0.10736400     0.78900
C836        C  0.82038085  0.15250128  0.18344486     0.80100
C837        C  0.80329891  0.28176838  0.33430549     0.79100
N838        N  0.65691311  0.33629065  0.43301345    -0.01500
C839        C  0.66955708  0.34085779  0.99415066     0.01100
C840        C  0.65268900  0.31567234  0.03339463    -0.21800
C841        C  0.63075969  0.29347166  0.49542870    -0.22000
C842        C  0.63452399  0.30590571  0.43415110     0.01000
H843        H  0.65936367  0.31030526  0.08307136     0.14800
H844        H  0.61483822  0.27015696  0.51049902     0.14800
C845        C  0.74940908  0.38136441  0.07204287     0.82200
N846        N  0.76970837  0.34745901  0.07753269    -0.76100
C847        C  0.75616336  0.31316611  0.05872239     0.84700
N848        N  0.72864430  0.31366743  0.01612724    -0.76000
C849        C  0.70778429  0.34700176  0.00825208     0.84700
N850        N  0.71746316  0.38081566  0.03924346    -0.77800
N851        N  0.64984305  0.36857333  0.39343526    -0.01500
C852        C  0.66753518  0.37114609  0.33631822     0.01100
C853        C  0.64243968  0.37066429  0.28632981    -0.21800
C854        C  0.60924727  0.37776692  0.31376898    -0.22000
C855        C  0.61478468  0.37722863  0.37887977     0.01000
H856        H  0.64770949  0.37439559  0.23573406     0.14800
H857        H  0.58449824  0.38614835  0.28932939     0.14800
N858        N  0.88715461  0.03832305  0.13373833     0.00100
C859        C  0.86938102  0.03884972  0.19114400     0.01100
C860        C  0.89388393  0.53837627  0.24101294    -0.21800
C861        C  0.92748822  0.53638882  0.21369536    -0.22000
C862        C  0.92273591  0.03586249  0.14765663     0.01000
H863        H  0.88813650  0.53420224  0.29129744     0.14800
H864        H  0.95246930  0.53064567  0.23892276     0.14800
Zn865      Zn  0.80320576  0.44317183  0.22893541     1.49700
Zn866      Zn  0.71802620  0.45723822  0.22975401     1.49400
Zn867      Zn  0.75706836  0.45178922  0.36321528     1.49100
Zn868      Zn  0.76181211  0.02524883  0.26725402     1.49500
O869        O  0.76139463  0.46926943  0.27422172    -1.82100
O870        O  0.78413868  0.40993635  0.15477690    -0.72800
O871        O  0.69676517  0.41455648  0.27282099    -0.72600
O872        O  0.80393208  0.42147603  0.38145063    -0.72100
O873        O  0.72815335  0.43505249  0.14004392    -0.72800
O874        O  0.83589648  0.41047378  0.29095708    -0.72400
O875        O  0.71590701  0.41250548  0.37333051    -0.73000
O876        O  0.75758277  0.04797785  0.35584523    -0.72400
O877        O  0.68017019  0.50236837  0.22561749    -0.73100
O878        O  0.75319358  0.00137673  0.42643055    -0.72500
O879        O  0.71936169  0.04776830  0.21633265    -0.73000
O880        O  0.80916333  0.04095820  0.22978927    -0.72900
O881        O  0.83495667  0.48359393  0.19374632    -0.72700
C882        C  0.75463007  0.41151178  0.12312384     0.79100
C883        C  0.69579677  0.39995458  0.32777081     0.79600
C884        C  0.83207468  0.40682879  0.35155565     0.78600
C885        C  0.75455362  0.03745518  0.41337391     0.78900
C886        C  0.68782943  0.53576908  0.20777015     0.80100
C887        C  0.83510923  0.52074363  0.20176237     0.79100
C888        C  0.75934241  0.13583924  0.44231724     0.82200
N889        N  0.79271022  0.13483683  0.47018408    -0.76100
C890        C  0.80494866  0.10269727  0.50202847     0.84700
N891        N  0.78447849  0.07080771  0.50078380    -0.76000
C892        C  0.75468471  0.06949144  0.46344906     0.84700
N893        N  0.73970956  0.10387871  0.44409447    -0.77800
N894        N  0.85791616  0.09135800  0.07225286    -0.01500
C895        C  0.84425945  0.09419782  0.01175589     0.01100
C896        C  0.85736347  0.06109646  0.47502667    -0.21800
C897        C  0.87303856  0.03490668  0.01626584    -0.22000
C898        C  0.87266370  0.05426548  0.07572361     0.01000
H899        H  0.84894676  0.05291172  0.42655241     0.14800
H900        H  0.88168754  0.00468016  0.00450440     0.14800
N901        N  0.62909636  0.13382763  0.11137985    -0.01500
C902        C  0.61208664  0.13330455  0.05379424     0.01100
C903        C  0.63771325  0.13436043  0.00522844    -0.21800
C904        C  0.67031540  0.13859005  0.03471277    -0.22000
C905        C  0.66431794  0.13795036  0.09997894     0.01000
H906        H  0.63263779  0.13856003  0.95471053     0.14800
H907        H  0.69434703  0.14743271  0.01186073     0.14800
N908        N  0.86506098  0.29756868  0.36962033    -0.01500
C909        C  0.88079089  0.29210280  0.42778156     0.01100
C910        C  0.85490438  0.29172281  0.47524804    -0.21800
C911        C  0.82233620  0.29532781  0.44524581    -0.22000
C912        C  0.82903839  0.29784766  0.38035581     0.01000
H913        H  0.85912216  0.28310532  0.52426678     0.14800
H914        H  0.79714623  0.28855613  0.46613429     0.14800
Zn915      Zn  0.00170295  0.18888911  0.08320965     1.49700
Zn916      Zn  0.94856224  0.18628571  0.45700923     1.49400
Zn917      Zn  0.48866343  0.26574197  0.49785143     1.49100
Zn918      Zn  0.53229802  0.19207801  0.44195184     1.49500
O919        O  0.49191456  0.20827822  0.99639574    -1.82100
O920        O  0.96092934  0.15452036  0.10379968    -0.72800
O921        O  0.91525573  0.23196908  0.42813688    -0.72600
O922        O  0.99263119  0.28591562  0.08846896    -0.72100
O923        O  0.92078861  0.15661045  0.02416408    -0.72800
O924        O  0.99962991  0.23529765  0.15150461    -0.72400
O925        O  0.94077917  0.28610529  0.46431979    -0.73000
O926        O  0.56028082  0.23577474  0.41574967    -0.72400
O927        O  0.96257496  0.14757123  0.38062464    -0.73100
O928        O  0.52764907  0.28964747  0.44699611    -0.72500
O929        O  0.51882117  0.16259223  0.36245628    -0.73000
O930        O  0.56757587  0.15798307  0.98548782    -0.72900
O931        O  0.55240694  0.15912033  0.08876088    -0.72700
C932        C  0.93041118  0.14604474  0.08006311     0.79100
C933        C  0.91487026  0.26921083  0.43729194     0.79600
C934        C  0.99651220  0.27212491  0.14390102     0.78600
C935        C  0.55490744  0.27265811  0.41825086     0.78900
C936        C  0.49179155  0.14319888  0.34786380     0.80100
C937        C  0.57471038  0.14944667  0.04287817     0.79100
C938        C  0.51478296  0.04529005  0.31832169     0.82200
N939        N  0.48937881  0.07548142  0.31917653    -0.76100
C940        C  0.49793383  0.11069851  0.29931367     0.84700
N941        N  0.52762036  0.11194914  0.26130257    -0.76000
C942        C  0.55353571  0.08190039  0.25834832     0.84700
N943        N  0.54707248  0.04875772  0.28823797    -0.77800
N944        N  0.60557229  0.08804573  0.18561504    -0.01500
C945        C  0.59126577  0.09197057  0.24614810     0.01100
C946        C  0.59919714  0.12850852  0.27338710    -0.21800
C947        C  0.61267003  0.14966320  0.22559806    -0.22000
C948        C  0.61446167  0.12460750  0.17202104     0.01000
H949        H  0.58951324  0.14123317  0.31945026     0.14800
H950        H  0.61901005  0.18008354  0.22888486     0.14800
N951        N  0.62693558  0.05448470  0.16100913    -0.01500
C952        C  0.61997038  0.04111938  0.09992500     0.01100
C953        C  0.64992752  0.54019041  0.06056217    -0.21800
C954        C  0.67766021  0.54987168  0.09908827    -0.22000
C955        C  0.66394959  0.05526165  0.16108136     0.01000
H956        H  0.65239727  0.52867329  0.01109228     0.14800
H957        H  0.70581325  0.54559656  0.08535207     0.14800
N958        N  0.89585406  0.37729014  0.37376401    -0.01500
C959        C  0.91448868  0.37701274  0.43021735     0.01100
C960        C  0.89094361  0.38146452  0.48205954    -0.21800
C961        C  0.85739198  0.38931062  0.45801624    -0.22000
C962        C  0.86097701  0.38818226  0.39180827     0.01000
H963        H  0.89818261  0.38620299  0.53226447     0.14800
H964        H  0.83368262  0.39898754  0.48624389     0.14800
Zn965      Zn  0.55788921  0.47577190  0.46630841     1.49700
Zn966      Zn  0.52073117  0.40042203  0.50242785     1.49400
Zn967      Zn  0.02322036  0.47597681  0.10257814     1.49100
Zn968      Zn  0.97396098  0.47935539  0.47373402     1.49500
O969        O  0.51821403  0.45752232  0.01163851    -1.82100
O970        O  0.59071706  0.43354140  0.43152304    -0.72800
O971        O  0.52015331  0.38012195  0.09137655    -0.72600
O972        O  0.56763471  0.50658525  0.12127450    -0.72100
O973        O  0.56389509  0.37876451  0.44851917    -0.72800
O974        O  0.58605295  0.01076624  0.02043569    -0.72400
O975        O  0.01772697  0.43153362  0.16189786    -0.73000
O976        O  0.94465576  0.50996223  0.04466202    -0.72400
O977        O  0.97558240  0.38035310  0.46097564    -0.73100
O978        O  0.98186744  0.51146428  0.12806836    -0.72500
O979        O  0.94387908  0.43558718  0.44071308    -0.73000
O980        O  0.98397052  0.01327501  0.39895797    -0.72900
O981        O  0.54340707  0.00419661  0.39056947    -0.72700
C982        C  0.58904851  0.39691337  0.42402193     0.79100
C983        C  0.01631848  0.39498927  0.14878372     0.79600
C984        C  0.58882163  0.51939164  0.08017183     0.78600
C985        C  0.95143947  0.51975031  0.10320855     0.78900
C986        C  0.94721348  0.39832545  0.44061503     0.80100
C987        C  0.51361163  0.01861976  0.37069754     0.79100
N988        N  0.90351067  0.34670333  0.32583721    -0.01500
C989        C  0.91694432  0.35309392  0.26645270     0.01100
C990        C  0.89651279  0.33349342  0.22066180    -0.21800
C991        C  0.87593757  0.30866731  0.25237268    -0.22000
C992        C  0.88146783  0.31660151  0.31717829     0.01000
H993        H  0.90247378  0.33010022  0.16955611     0.14800
H994        H  0.86180141  0.28556158  0.22885402     0.14800
C995        C  0.99810954  0.30114286  0.19823926     0.82200
N996        N  0.96829019  0.30885139  0.23558320    -0.76100
C997        C  0.95627024  0.34653681  0.25272204     0.84700
N998        N  0.97523263  0.37640587  0.23194750    -0.76000
C999        C  0.00686152  0.36855138  0.19870398     0.84700
N1000       N  0.51929973  0.33084150  0.18786678    -0.77800
N1001       N  0.61384632  0.29212237  0.87964721    -0.01500
C1002       C  0.62625759  0.28607709  0.81849811     0.01100
C1003       C  0.59794452  0.28681497  0.77561781    -0.21800
C1004       C  0.56719909  0.29230365  0.81213920    -0.22000
C1005       C  0.57730392  0.29390906  0.87608184     0.01000
H1006       H  0.59920902  0.27990943  0.72416391     0.14800
H1007       H  0.54041537  0.28762150  0.79484019     0.14800
N1008       N  0.86904316  0.12320290  0.61251850    -0.01500
C1009       C  0.85364462  0.12855357  0.67188421     0.01100
C1010       C  0.87929921  0.13128690  0.71945790    -0.21800
C1011       C  0.91175664  0.13058204  0.68921815    -0.22000
C1012       C  0.90500597  0.12785372  0.62369973     0.01000
H1013       H  0.87452480  0.13966978  0.76987609     0.14800
H1014       H  0.93672350  0.13762488  0.71243734     0.14800
Zn1015     Zn  0.73767611  0.23972005  0.83061482     1.49700
Zn1016     Zn  0.74618974  0.16121115  0.74214747     1.49400
Zn1017     Zn  0.70881854  0.23779617  0.68844228     1.49100
Zn1018     Zn  0.79044736  0.23578164  0.71008588     1.49500
O1019       O  0.74601304  0.21819435  0.74266936    -1.82100
O1020       O  0.75085250  0.19814267  0.89555964    -0.72800
O1021       O  0.70616229  0.13980410  0.68674538    -0.72600
O1022       O  0.66945685  0.26564758  0.73985750    -0.72100
O1023       O  0.74594533  0.14389036  0.83330167    -0.72800
O1024       O  0.68595306  0.26142616  0.84229843    -0.72400
O1025       O  0.68755050  0.19475060  0.64093482    -0.73000
O1026       O  0.78440598  0.27341903  0.63751708    -0.72400
O1027       O  0.79299498  0.13715927  0.70552153    -0.73100
O1028       O  0.72555760  0.27173025  0.62219484    -0.72500
O1029       O  0.82202966  0.18933295  0.68012165    -0.73000
O1030       O  0.81497480  0.26225398  0.78429415    -0.72900
O1031       O  0.77030116  0.28265112  0.85085474    -0.72700
C1032       C  0.75151214  0.16096791  0.88808223     0.79100
C1033       C  0.68725691  0.15812311  0.64553547     0.79600
C1034       C  0.66284749  0.27114113  0.79977100     0.78600
C1035       C  0.75589224  0.28376545  0.60739563     0.78900
C1036       C  0.82040408  0.15250638  0.68348412     0.80100
C1037       C  0.80329384  0.28177131  0.83436927     0.79100
N1038       N  0.65689684  0.33631051  0.93302329    -0.01500
C1039       C  0.66958182  0.34081413  0.49413847     0.01100
C1040       C  0.65271870  0.31561473  0.53336406    -0.21800
C1041       C  0.63073845  0.29351232  0.99546914    -0.22000
C1042       C  0.63451193  0.30592298  0.93417828     0.01000
H1043       H  0.65939922  0.31023014  0.58303184     0.14800
H1044       H  0.61481673  0.27020232  0.01055576     0.14800
C1045       C  0.74942426  0.38134063  0.57202648     0.82200
N1046       N  0.76972716  0.34743880  0.57753099    -0.76100
C1047       C  0.75618607  0.31314146  0.55873452     0.84700
N1048       N  0.72867037  0.31363336  0.51613228    -0.76000
C1049       C  0.70780795  0.34696406  0.50823912     0.84700
N1050       N  0.71748176  0.38078360  0.53921798    -0.77800
N1051       N  0.64982472  0.36857909  0.89341695    -0.01500
C1052       C  0.66751945  0.37113941  0.83630040     0.01100
C1053       C  0.64242588  0.37065176  0.78630867    -0.21800
C1054       C  0.60923202  0.37775891  0.81374223    -0.22000
C1055       C  0.61476685  0.37723069  0.87885474     0.01000
H1056       H  0.64769810  0.37437485  0.73571336     0.14800
H1057       H  0.58448440  0.38613671  0.78929652     0.14800
N1058       N  0.88714932  0.03832142  0.63372115     0.00100
C1059       C  0.86937398  0.03884993  0.69112668     0.01100
C1060       C  0.89387632  0.53837402  0.74099663    -0.21800
C1061       C  0.92748125  0.53638174  0.71368171    -0.22000
C1062       C  0.92273084  0.03585471  0.64764246     0.01000
H1063       H  0.88812736  0.53420107  0.79128115     0.14800
H1064       H  0.95246207  0.53063764  0.73891303     0.14800
Zn1065     Zn  0.80320071  0.44316736  0.72891888     1.49700
Zn1066     Zn  0.71801744  0.45722106  0.72972749     1.49400
Zn1067     Zn  0.75705390  0.45177666  0.86319310     1.49100
Zn1068     Zn  0.76180441  0.02523721  0.76724376     1.49500
O1069       O  0.76138399  0.46925739  0.77419996    -1.82100
O1070       O  0.78414291  0.40992729  0.65475995    -0.72800
O1071       O  0.69675141  0.41454437  0.77279771    -0.72600
O1072       O  0.80392002  0.42147363  0.88143557    -0.72100
O1073       O  0.72815090  0.43502382  0.64002368    -0.72800
O1074       O  0.83589145  0.41047767  0.79094834    -0.72400
O1075       O  0.71589586  0.41249148  0.87330528    -0.73000
O1076       O  0.75757517  0.04796091  0.85583948    -0.72400
O1077       O  0.68016310  0.50235210  0.72558150    -0.73100
O1078       O  0.75317218  0.00135756  0.92641546    -0.72500
O1079       O  0.71935109  0.04776046  0.71633870    -0.73000
O1080       O  0.80915519  0.04095322  0.72977514    -0.72900
O1081       O  0.83495106  0.48359154  0.69372964    -0.72700
C1082       C  0.75463470  0.41149198  0.62310557     0.79100
C1083       C  0.69578347  0.39994299  0.82774762     0.79600
C1084       C  0.83206705  0.40683368  0.85154641     0.78600
C1085       C  0.75453866  0.03743589  0.91336527     0.78900
C1086       C  0.68782053  0.53576000  0.70776347     0.80100
C1087       C  0.83510217  0.52074132  0.70174572     0.79100
C1088       C  0.75933184  0.13581703  0.94233029     0.82200
N1089       N  0.79269916  0.13481024  0.97019736    -0.76100
C1090       C  0.80493597  0.10266708  0.00203219     0.84700
N1091       N  0.78446293  0.07077978  0.00078279    -0.76000
C1092       C  0.75466958  0.06946818  0.96344638     0.84700
N1093       N  0.73969696  0.10385773  0.94409723    -0.77800
N1094       N  0.85792130  0.09137597  0.57226129    -0.01500
C1095       C  0.84427251  0.09423183  0.51176063     0.01100
C1096       C  0.85734666  0.06105420  0.97503849    -0.21800
C1097       C  0.87304596  0.03493619  0.51624277    -0.22000
C1098       C  0.87266362  0.05427942  0.57571356     0.01000
H1099       H  0.84892380  0.05285686  0.92657352     0.14800
H1100       H  0.88169351  0.00471073  0.50446354     0.14800
N1101       N  0.62911290  0.13383277  0.61138572    -0.01500
C1102       C  0.61210826  0.13332173  0.55379513     0.01100
C1103       C  0.63773891  0.13438382  0.50523825    -0.21800
C1104       C  0.67033914  0.13860432  0.53473315    -0.22000
C1105       C  0.66433585  0.13795494  0.59999647     0.01000
H1106       H  0.63266771  0.13859266  0.45471975     0.14800
H1107       H  0.69437316  0.14744944  0.51189348     0.14800
N1108       N  0.86505621  0.29758421  0.86965359    -0.01500
C1109       C  0.88079128  0.29212782  0.92781262     0.01100
C1110       C  0.85490986  0.29176016  0.97528983    -0.21800
C1111       C  0.82233913  0.29535981  0.94529627    -0.22000
C1112       C  0.82903456  0.29786613  0.88040150     0.01000
H1113       H  0.85913212  0.28314970  0.02431215     0.14800
H1114       H  0.79715289  0.28858748  0.96619524     0.14800
Zn1115     Zn  0.00171803  0.18888751  0.58319162     1.49700
Zn1116     Zn  0.94854837  0.18629848  0.95702059     1.49400
Zn1117     Zn  0.48865791  0.26574499  0.99787275     1.49100
Zn1118     Zn  0.53228431  0.19208275  0.94197597     1.49500
O1119       O  0.49192807  0.20827330  0.49637433    -1.82100
O1120       O  0.96094964  0.15451505  0.60379062    -0.72800
O1121       O  0.91524801  0.23198822  0.92814938    -0.72600
O1122       O  0.99262375  0.28591461  0.58845536    -0.72100
O1123       O  0.92080531  0.15660263  0.52416163    -0.72800
O1124       O  0.99963622  0.23529511  0.65148512    -0.72400
O1125       O  0.94077533  0.28611629  0.96435927    -0.73000
O1126       O  0.56028120  0.23577422  0.91579752    -0.72400
O1127       O  0.96256324  0.14758859  0.88063241    -0.73100
O1128       O  0.52763820  0.28964633  0.94700414    -0.72500
O1129       O  0.51880544  0.16262134  0.86246012    -0.73000
O1130       O  0.56760019  0.15800066  0.48548363    -0.72900
O1131       O  0.55242370  0.15912564  0.58875207    -0.72700
C1132       C  0.93043011  0.14603942  0.58006057     0.79100
C1133       C  0.91486633  0.26922891  0.93731987     0.79600
C1134       C  0.99650748  0.27212229  0.64388661     0.78600
C1135       C  0.55490223  0.27265671  0.91827786     0.78900
C1136       C  0.49177859  0.14322395  0.84786744     0.80100
C1137       C  0.57473191  0.14946072  0.54287351     0.79100
C1138       C  0.51477067  0.04531651  0.81831932     0.82200
N1139       N  0.48936687  0.07550793  0.81916983    -0.76100
C1140       C  0.49792509  0.11072589  0.79931484     0.84700
N1141       N  0.52761528  0.11197791  0.76131271    -0.76000
C1142       C  0.55352767  0.08192608  0.75835203     0.84700
N1143       N  0.54706090  0.04878261  0.78823657    -0.77800
N1144       N  0.60556937  0.08806011  0.68561886    -0.01500
C1145       C  0.59125953  0.09199114  0.74614984     0.01100
C1146       C  0.59919677  0.12852759  0.77338693    -0.21800
C1147       C  0.61267985  0.14967569  0.72559922    -0.22000
C1148       C  0.61446921  0.12461849  0.67202382     0.01000
H1149       H  0.58951235  0.14125625  0.81944621     0.14800
H1150       H  0.61902786  0.18009380  0.72888545     0.14800
N1151       N  0.62692648  0.05449258  0.66101893    -0.01500
C1152       C  0.61995981  0.04112880  0.59993453     0.01100
C1153       C  0.64991570  0.54020282  0.56056898    -0.21800
C1154       C  0.67764993  0.54987966  0.59909349    -0.22000
C1155       C  0.66394096  0.05526435  0.66108816     0.01000
H1156       H  0.65238460  0.52868620  0.51109654     0.14800
H1157       H  0.70580190  0.54560271  0.58535480     0.14800
N1158       N  0.89584854  0.37730482  0.87376251    -0.01500
C1159       C  0.91448249  0.37703285  0.93021680     0.01100
C1160       C  0.89093764  0.38149028  0.98205875    -0.21800
C1161       C  0.85738653  0.38933560  0.95801405    -0.22000
C1162       C  0.86097181  0.38819911  0.89180576     0.01000
H1163       H  0.89817673  0.38623272  0.03226299     0.14800
H1164       H  0.83367748  0.39901470  0.98623909     0.14800
Zn1165     Zn  0.55788178  0.47578599  0.96628859     1.49700
Zn1166     Zn  0.52072413  0.40043895  0.00241842     1.49400
Zn1167     Zn  0.02322084  0.47596608  0.60258580     1.49100
Zn1168     Zn  0.97395397  0.47937589  0.97373296     1.49500
O1169       O  0.51821952  0.45750542  0.51164838    -1.82100
O1170       O  0.59069804  0.43355223  0.93147429    -0.72800
O1171       O  0.52015695  0.38011138  0.59138996    -0.72600
O1172       O  0.56763329  0.50657885  0.62128859    -0.72100
O1173       O  0.56388273  0.37877659  0.94850622    -0.72800
O1174       O  0.58604723  0.01076684  0.52044927    -0.72400
O1175       O  0.01772523  0.43152545  0.66190783    -0.73000
O1176       O  0.94465544  0.50994695  0.54465189    -0.72400
O1177       O  0.97557582  0.38037370  0.96096800    -0.73100
O1178       O  0.98186333  0.51145317  0.62806306    -0.72500
O1179       O  0.94387095  0.43560829  0.94071287    -0.73000
O1180       O  0.98395808  0.01330127  0.89895873    -0.72900
O1181       O  0.54339436  0.00422300  0.89056664    -0.72700
C1182       C  0.58903093  0.39692322  0.92398882     0.79100
C1183       C  0.01631835  0.39498076  0.64879558     0.79600
C1184       C  0.58881561  0.51939245  0.58018541     0.78600
C1185       C  0.95143619  0.51973847  0.60319837     0.78900
C1186       C  0.94720647  0.39834635  0.94061099     0.80100
C1187       C  0.51359879  0.01864702  0.87069714     0.79100
N1188       N  0.90350380  0.34671220  0.82584457    -0.01500
C1189       C  0.91693530  0.35309440  0.76645435     0.01100
C1190       C  0.89650025  0.33348996  0.72067359    -0.21800
C1191       C  0.87592711  0.30866778  0.75239729    -0.22000
C1192       C  0.88145971  0.31661046  0.81720013     0.01000
H1193       H  0.90245856  0.33009006  0.66956894     0.14800
H1194       H  0.86179241  0.28555822  0.72888708     0.14800
C1195       C  0.99809966  0.30113713  0.69823144     0.82200
N1196       N  0.96827619  0.30884636  0.73556515    -0.76100
C1197       C  0.95626077  0.34653176  0.75271639     0.84700
N1198       N  0.97522849  0.37640023  0.73195485    -0.76000
C1199       C  0.00685864  0.36854413  0.69871521     0.84700
N1200       N  0.51929455  0.33083375  0.68787547    -0.77800
N1201       N  0.61385222  0.79212296  0.37961681    -0.01500
C1202       C  0.62625951  0.78608377  0.31846470     0.01100
C1203       C  0.59794385  0.78683071  0.27559027    -0.21800
C1204       C  0.56720132  0.79231828  0.31211947    -0.22000
C1205       C  0.57730946  0.79391413  0.37605958     0.01000
H1206       H  0.59920448  0.77993057  0.22413408     0.14800
H1207       H  0.54041533  0.78763886  0.29482595     0.14800
N1208       N  0.86902615  0.62319468  0.11250044    -0.01500
C1209       C  0.85362090  0.62854567  0.17185994     0.01100
C1210       C  0.87926988  0.63128383  0.21944274    -0.21800
C1211       C  0.91173004  0.63058534  0.18921462    -0.22000
C1212       C  0.90498631  0.62785448  0.12369404     0.01000
H1213       H  0.87448883  0.63966848  0.26985991     0.14800
H1214       H  0.93669350  0.63763410  0.21244257     0.14800
Zn1215     Zn  0.73767993  0.73973197  0.33056496     1.49700
Zn1216     Zn  0.74617222  0.66121781  0.24212972     1.49400
Zn1217     Zn  0.70880977  0.73779524  0.18839455     1.49100
Zn1218     Zn  0.79043842  0.73578019  0.21003029     1.49500
O1219       O  0.74600505  0.71819836  0.24262466    -1.82100
O1220       O  0.75086756  0.69816212  0.39552519    -0.72800
O1221       O  0.70613834  0.63981093  0.18673796    -0.72600
O1222       O  0.66944962  0.76564324  0.23981467    -0.72100
O1223       O  0.74593420  0.64390528  0.33329197    -0.72800
O1224       O  0.68595757  0.76143687  0.34225271    -0.72400
O1225       O  0.68754500  0.69474841  0.14088173    -0.73000
O1226       O  0.78439180  0.77342766  0.13747533    -0.72400
O1227       O  0.79297478  0.63716084  0.20550684    -0.73100
O1228       O  0.72554275  0.77173824  0.12215946    -0.72500
O1229       O  0.82200812  0.68932566  0.18005233    -0.73000
O1230       O  0.81498043  0.76223943  0.28424033    -0.72900
O1231       O  0.77030282  0.78266950  0.35077073    -0.72700
C1232       C  0.75151723  0.66098684  0.38806310     0.79100
C1233       C  0.68724213  0.65812341  0.14550733     0.79600
C1234       C  0.66284698  0.77114477  0.29972917     0.78600
C1235       C  0.75587573  0.78377824  0.10736350     0.78900
C1236       C  0.82038138  0.65250106  0.18344490     0.80100
C1237       C  0.80329931  0.78176852  0.33430512     0.79100
N1238       N  0.65691382  0.83629063  0.43301243    -0.01500
C1239       C  0.66955780  0.84085797  0.99414975     0.01100
C1240       C  0.65268941  0.81567305  0.03339404    -0.21800
C1241       C  0.63075983  0.79347252  0.49542879    -0.22000
C1242       C  0.63452445  0.80590590  0.43415074     0.01000
H1243       H  0.65936408  0.81030625  0.08307186     0.14800
H1244       H  0.61483828  0.77015845  0.51049945     0.14800
C1245       C  0.74941008  0.88136408  0.07204171     0.82200
N1246       N  0.76970911  0.84745850  0.07753183    -0.76100
C1247       C  0.75616388  0.81316570  0.05872183     0.84700
N1248       N  0.72864477  0.81366707  0.01612677    -0.76000
C1249       C  0.70778508  0.84700162  0.00825111     0.84700
N1250       N  0.71746419  0.88081546  0.03924208    -0.77800
N1251       N  0.64984379  0.86857311  0.39343389    -0.01500
C1252       C  0.66753596  0.87114579  0.33631686     0.01100
C1253       C  0.64244048  0.87066410  0.28632820    -0.21800
C1254       C  0.60924801  0.87776671  0.31376761    -0.22000
C1255       C  0.61478544  0.87722850  0.37887838     0.01000
H1256       H  0.64771015  0.87439531  0.23573379     0.14800
H1257       H  0.58449899  0.88614815  0.28932795     0.14800
N1258       N  0.88715383  0.53832288  0.13373839     0.00100
C1259       C  0.86938024  0.53884981  0.19114416     0.01100
C1260       C  0.89388467  0.03837645  0.24101281    -0.21800
C1261       C  0.92748893  0.03638930  0.21369532    -0.22000
C1262       C  0.92273515  0.53586204  0.14765668     0.01000
H1263       H  0.88813723  0.03420235  0.29129752     0.14800
H1264       H  0.95247013  0.03064624  0.23892287     0.14800
Zn1265     Zn  0.80320676  0.94317136  0.22893452     1.49700
Zn1266     Zn  0.71802722  0.95723790  0.22975296     1.49400
Zn1267     Zn  0.75706915  0.95178883  0.36321471     1.49100
Zn1268     Zn  0.76181121  0.52524920  0.26725412     1.49500
O1269       O  0.76139561  0.96926895  0.27422100    -1.82100
O1270       O  0.78413966  0.90993590  0.15477586    -0.72800
O1271       O  0.69676625  0.91455597  0.27281968    -0.72600
O1272       O  0.80393300  0.92147587  0.38145012    -0.72100
O1273       O  0.72815444  0.93505230  0.14004261    -0.72800
O1274       O  0.83589752  0.91047358  0.29095663    -0.72400
O1275       O  0.71590772  0.91250517  0.37332949    -0.73000
O1276       O  0.75758218  0.54797796  0.35584552    -0.72400
O1277       O  0.68017115  0.00236796  0.22561661    -0.73100
O1278       O  0.75319301  0.50137693  0.42643107    -0.72500
O1279       O  0.71936082  0.54776852  0.21633255    -0.73000
O1280       O  0.80916245  0.54095851  0.22978927    -0.72900
O1281       O  0.83495752  0.98359372  0.19374568    -0.72700
C1282       C  0.75463109  0.91151146  0.12312259     0.79100
C1283       C  0.69579767  0.89995416  0.32776960     0.79600
C1284       C  0.83207566  0.90682874  0.35155530     0.78600
C1285       C  0.75455321  0.53745537  0.41337419     0.78900
C1286       C  0.68783030  0.03576887  0.20777008     0.80100
C1287       C  0.83511006  0.02074342  0.20176208     0.79100
C1288       C  0.75934257  0.63583925  0.44231672     0.82200
N1289       N  0.79271034  0.63483695  0.47018348    -0.76100
C1290       C  0.80494881  0.60269747  0.50202812     0.84700
N1291       N  0.78447857  0.57080790  0.50078354    -0.76000
C1292       C  0.75468468  0.56949162  0.46344929     0.84700
N1293       N  0.73970954  0.60387892  0.44409446    -0.77800
N1294       N  0.85791606  0.59135807  0.07225260    -0.01500
C1295       C  0.84425959  0.59419805  0.01175564     0.01100
C1296       C  0.85736353  0.56109679  0.47502675    -0.21800
C1297       C  0.87303807  0.53490678  0.01626581    -0.22000
C1298       C  0.87266313  0.55426532  0.07572368     0.01000
H1299       H  0.84894694  0.55291215  0.42655212     0.14800
H1300       H  0.88168712  0.50467941  0.00450419     0.14800
N1301       N  0.62909606  0.63382764  0.11137959    -0.01500
C1302       C  0.61208645  0.63330408  0.05379381     0.01100
C1303       C  0.63771323  0.63435967  0.00522843    -0.21800
C1304       C  0.67031532  0.63858961  0.03471265    -0.22000
C1305       C  0.66431762  0.63795030  0.09997889     0.01000
H1306       H  0.63263775  0.63855899  0.95470899     0.14800
H1307       H  0.69434676  0.64743198  0.01186101     0.14800
N1308       N  0.86506136  0.79756886  0.36961951    -0.01500
C1309       C  0.88079131  0.79210300  0.42778071     0.01100
C1310       C  0.85490483  0.79172344  0.47524704    -0.21800
C1311       C  0.82233653  0.79532845  0.44524530    -0.22000
C1312       C  0.82903884  0.79784807  0.38035504     0.01000
H1313       H  0.85912271  0.78310581  0.52426743     0.14800
H1314       H  0.79714735  0.78855705  0.46613305     0.14800
Zn1315     Zn  0.00170308  0.68888890  0.08320831     1.49700
Zn1316     Zn  0.94856223  0.68628551  0.45700866     1.49400
Zn1317     Zn  0.48866371  0.76574153  0.49785007     1.49100
Zn1318     Zn  0.53229818  0.69207745  0.44195082     1.49500
O1319       O  0.49191473  0.70827780  0.99639452    -1.82100
O1320       O  0.96092966  0.65452013  0.10379877    -0.72800
O1321       O  0.91525582  0.73196903  0.42813634    -0.72600
O1322       O  0.99263138  0.78591539  0.08846780    -0.72100
O1323       O  0.92078875  0.65661029  0.02416355    -0.72800
O1324       O  0.99962987  0.73529736  0.15150327    -0.72400
O1325       O  0.94077964  0.78610517  0.46431843    -0.73000
O1326       O  0.56028133  0.73577412  0.41574920    -0.72400
O1327       O  0.96257488  0.64757089  0.38062423    -0.73100
O1328       O  0.52764950  0.78964689  0.44699517    -0.72500
O1329       O  0.51882097  0.66259201  0.36245487    -0.73000
O1330       O  0.56757559  0.65798172  0.98548669    -0.72900
O1331       O  0.55240692  0.65912038  0.08875997    -0.72700
C1332       C  0.93041150  0.64604448  0.08006246     0.79100
C1333       C  0.91487057  0.76921080  0.43729102     0.79600
C1334       C  0.99651225  0.77212462  0.14389982     0.78600
C1335       C  0.55490798  0.77265750  0.41825030     0.78900
C1336       C  0.49179127  0.64319858  0.34786291     0.80100
C1337       C  0.57471022  0.64944604  0.04287733     0.79100
C1338       C  0.51478238  0.54528985  0.31832122     0.82200
N1339       N  0.48937822  0.57548114  0.31917567    -0.76100
C1340       C  0.49793326  0.61069823  0.29931268     0.84700
N1341       N  0.52761969  0.61194874  0.26130139    -0.76000
C1342       C  0.55353512  0.58190011  0.25834764     0.84700
N1343       N  0.54707200  0.54875752  0.28823764    -0.77800
N1344       N  0.60557165  0.58804570  0.18561438    -0.01500
C1345       C  0.59126515  0.59197038  0.24614732     0.01100
C1346       C  0.59919654  0.62850831  0.27338669    -0.21800
C1347       C  0.61266970  0.64966292  0.22559775    -0.22000
C1348       C  0.61446129  0.62460735  0.17202066     0.01000
H1349       H  0.58951277  0.64123271  0.31944909     0.14800
H1350       H  0.61900989  0.68008336  0.22888475     0.14800
N1351       N  0.62693491  0.55448456  0.16100829    -0.01500
C1352       C  0.61996974  0.54111936  0.09992432     0.01100
C1353       C  0.64992807  0.04019084  0.06056291    -0.21800
C1354       C  0.67766079  0.04987214  0.09908876    -0.22000
C1355       C  0.66394890  0.55526142  0.16108076     0.01000
H1356       H  0.65239787  0.02867357  0.01109213     0.14800
H1357       H  0.70581379  0.04559705  0.08535248     0.14800
N1358       N  0.89585501  0.87729014  0.37376412    -0.01500
C1359       C  0.91448966  0.87701273  0.43021740     0.01100
C1360       C  0.89094459  0.88146486  0.48205955    -0.21800
C1361       C  0.85739289  0.88931126  0.45801630    -0.22000
C1362       C  0.86097804  0.88818251  0.39180817     0.01000
H1363       H  0.89818357  0.88620341  0.53226438     0.14800
H1364       H  0.83368418  0.89898820  0.48624315     0.14800
Zn1365     Zn  0.55788999  0.97577195  0.46630836     1.49700
Zn1366     Zn  0.52073220  0.90042209  0.50242740     1.49400
Zn1367     Zn  0.02322107  0.97597663  0.10257859     1.49100
Zn1368     Zn  0.97396188  0.97935546  0.47373411     1.49500
O1369       O  0.51821497  0.95752229  0.01163878    -1.82100
O1370       O  0.59071778  0.93354146  0.43152164    -0.72800
O1371       O  0.52015435  0.88012157  0.09137620    -0.72600
O1372       O  0.56763517  0.00658545  0.12127527    -0.72100
O1373       O  0.56389613  0.87876449  0.44851847    -0.72800
O1374       O  0.58605219  0.51076655  0.02043488    -0.72400
O1375       O  0.01772778  0.93153314  0.16189779    -0.73000
O1376       O  0.94465660  0.00996270  0.04466209    -0.72400
O1377       O  0.97558350  0.88035310  0.46097520    -0.73100
O1378       O  0.98186801  0.01146392  0.12806879    -0.72500
O1379       O  0.94388000  0.93558721  0.44071349    -0.73000
O1380       O  0.98396981  0.51327529  0.39895806    -0.72900
O1381       O  0.54340630  0.50419610  0.39056888    -0.72700
C1382       C  0.58904933  0.89691336  0.42402068     0.79100
C1383       C  0.01631944  0.89498880  0.14878350     0.79600
C1384       C  0.58882226  0.01939159  0.08017272     0.78600
C1385       C  0.95144020  0.01975048  0.10320872     0.78900
C1386       C  0.94721448  0.89832545  0.44061503     0.80100
C1387       C  0.51361098  0.51861960  0.37069720     0.79100
N1388       N  0.90351150  0.84670336  0.32583710    -0.01500
C1389       C  0.91694511  0.85309423  0.26645267     0.01100
C1390       C  0.89651316  0.83349444  0.22066146    -0.21800
C1391       C  0.87593766  0.80866858  0.25237215    -0.22000
C1392       C  0.88146826  0.81660200  0.31717768     0.01000
H1393       H  0.90247387  0.83010166  0.16955622     0.14800
H1394       H  0.86180062  0.78556296  0.22885260     0.14800
C1395       C  0.99810975  0.80114246  0.19823808     0.82200
N1396       N  0.96829037  0.80885120  0.23558192    -0.76100
C1397       C  0.95627094  0.84653667  0.25272151     0.84700
N1398       N  0.97523367  0.87640556  0.23194747    -0.76000
C1399       C  0.00686245  0.86855083  0.19870355     0.84700
N1400       N  0.51930022  0.83084087  0.18786586    -0.77800
N1401       N  0.61384700  0.79212212  0.87964695    -0.01500
C1402       C  0.62625822  0.78607693  0.81849800     0.01100
C1403       C  0.59794518  0.78681455  0.77561761    -0.21800
C1404       C  0.56719989  0.79230313  0.81213901    -0.22000
C1405       C  0.57730453  0.79390850  0.87608160     0.01000
H1406       H  0.59920978  0.77990892  0.72416378     0.14800
H1407       H  0.54041538  0.78762078  0.79483928     0.14800
N1408       N  0.86904369  0.62320289  0.61251848    -0.01500
C1409       C  0.85364540  0.62855365  0.67188435     0.01100
C1410       C  0.87930023  0.63128691  0.71945737    -0.21800
C1411       C  0.91175760  0.63058160  0.68921756    -0.22000
C1412       C  0.90500658  0.62785329  0.62369909     0.01000
H1413       H  0.87452592  0.63967014  0.76987711     0.14800
H1414       H  0.93672431  0.63762418  0.71243605     0.14800
Zn1415     Zn  0.73767658  0.73971985  0.83061399     1.49700
Zn1416     Zn  0.74619019  0.66121075  0.74214658     1.49400
Zn1417     Zn  0.70881877  0.73779601  0.68844183     1.49100
Zn1418     Zn  0.79044779  0.73578145  0.71008572     1.49500
O1419       O  0.74601336  0.71819405  0.74266872    -1.82100
O1420       O  0.75085292  0.69814263  0.89555861    -0.72800
O1421       O  0.70616267  0.63980386  0.68674426    -0.72600
O1422       O  0.66945738  0.76564771  0.73985724    -0.72100
O1423       O  0.74594555  0.64389018  0.83330100    -0.72800
O1424       O  0.68595360  0.76142577  0.84229805    -0.72400
O1425       O  0.68755038  0.69475057  0.64093478    -0.73000
O1426       O  0.78440631  0.77341857  0.63751646    -0.72400
O1427       O  0.79299557  0.63715900  0.70552103    -0.73100
O1428       O  0.72555788  0.77173003  0.62219433    -0.72500
O1429       O  0.82203032  0.68933286  0.68012224    -0.73000
O1430       O  0.81497522  0.76225413  0.78429349    -0.72900
O1431       O  0.77030168  0.78265086  0.85085445    -0.72700
C1432       C  0.75151240  0.66096787  0.88808148     0.79100
C1433       C  0.68725691  0.65812303  0.64553499     0.79600
C1434       C  0.66284808  0.77114105  0.79977069     0.78600
C1435       C  0.75589259  0.78376508  0.60739505     0.78900
C1436       C  0.82040478  0.65250628  0.68348437     0.80100
C1437       C  0.80329428  0.78177138  0.83436871     0.79100
N1438       N  0.65689764  0.83631042  0.93302226    -0.01500
C1439       C  0.66958249  0.84081449  0.49413746     0.01100
C1440       C  0.65271902  0.81561572  0.53336357    -0.21800
C1441       C  0.63073886  0.79351308  0.99546901    -0.22000
C1442       C  0.63451246  0.80592302  0.93417801     0.01000
H1443       H  0.65939945  0.81023147  0.58303197     0.14800
H1444       H  0.61481643  0.77020272  0.01055646     0.14800
C1445       C  0.74942533  0.88134034  0.57202494     0.82200
N1446       N  0.76972789  0.84743827  0.57753003    -0.76100
C1447       C  0.75618646  0.81314103  0.55873383     0.84700
N1448       N  0.72867076  0.81363303  0.51613174    -0.76000
C1449       C  0.70780871  0.84696395  0.50823797     0.84700
N1450       N  0.71748298  0.88078354  0.53921614    -0.77800
N1451       N  0.64982558  0.86857871  0.89341564    -0.01500
C1452       C  0.66752036  0.87113891  0.83629893     0.01100
C1453       C  0.64242667  0.87065152  0.78630764    -0.21800
C1454       C  0.60923286  0.87775889  0.81374096    -0.22000
C1455       C  0.61476773  0.87723058  0.87885351     0.01000
H1456       H  0.64769908  0.87437470  0.73571062     0.14800
H1457       H  0.58448531  0.88613682  0.78929549     0.14800
N1458       N  0.88714860  0.53832131  0.63372129     0.00100
C1459       C  0.86937320  0.53885003  0.69112679     0.01100
C1460       C  0.89387711  0.03837420  0.74099647    -0.21800
C1461       C  0.92748208  0.03638222  0.71368164    -0.22000
C1462       C  0.92273013  0.53585433  0.64764265     0.01000
H1463       H  0.88812827  0.03420116  0.79128140     0.14800
H1464       H  0.95246243  0.03063836  0.73891239     0.14800
Zn1465     Zn  0.80320171  0.94316688  0.72891798     1.49700
Zn1466     Zn  0.71801853  0.95722054  0.72972615     1.49400
Zn1467     Zn  0.75705469  0.95177619  0.86319225     1.49100
Zn1468     Zn  0.76180354  0.52523764  0.76724418     1.49500
O1469       O  0.76138494  0.96925692  0.77419918    -1.82100
O1470       O  0.78414395  0.90992677  0.65475886    -0.72800
O1471       O  0.69675267  0.91454357  0.77279622    -0.72600
O1472       O  0.80392093  0.92147340  0.88143484    -0.72100
O1473       O  0.72815218  0.93502380  0.64002199    -0.72800
O1474       O  0.83589254  0.91047741  0.79094779    -0.72400
O1475       O  0.71589664  0.91249101  0.87330418    -0.73000
O1476       O  0.75757457  0.54796129  0.85583991    -0.72400
O1477       O  0.68016400  0.00235144  0.72558043    -0.73100
O1478       O  0.75317160  0.50135802  0.92641608    -0.72500
O1479       O  0.71935036  0.54776083  0.71633877    -0.73000
O1480       O  0.80915432  0.54095361  0.72977506    -0.72900
O1481       O  0.83495188  0.98359129  0.69372877    -0.72700
C1482       C  0.75463592  0.91149173  0.62310408     0.79100
C1483       C  0.69578449  0.89994234  0.82774628     0.79600
C1484       C  0.83206803  0.90683355  0.85154600     0.78600
C1485       C  0.75453823  0.53743629  0.91336577     0.78900
C1486       C  0.68782130  0.03575959  0.70776322     0.80100
C1487       C  0.83510302  0.02074105  0.70174552     0.79100
C1488       C  0.75933200  0.63581729  0.94232979     0.82200
N1489       N  0.79269937  0.63481044  0.97019681    -0.76100
C1490       C  0.80493609  0.60266739  0.00203181     0.84700
N1491       N  0.78446299  0.57078012  0.00078280    -0.76000
C1492       C  0.75466946  0.56946862  0.96344668     0.84700
N1493       N  0.73969700  0.60385810  0.94409733    -0.77800
N1494       N  0.85792121  0.59137612  0.57226133    -0.01500
C1495       C  0.84427263  0.59423220  0.51176061     0.01100
C1496       C  0.85734666  0.56105433  0.97503833    -0.21800
C1497       C  0.87304552  0.53493622  0.51624292    -0.22000
C1498       C  0.87266307  0.55427948  0.57571381     0.01000
H1499       H  0.84892385  0.55285704  0.92657288     0.14800
H1500       H  0.88169274  0.50471114  0.50446399     0.14800
N1501       N  0.62911275  0.63383279  0.61138500    -0.01500
C1502       C  0.61210824  0.63332124  0.55379439     0.01100
C1503       C  0.63773893  0.63438314  0.50523717    -0.21800
C1504       C  0.67033898  0.63860405  0.53473269    -0.22000
C1505       C  0.66433576  0.63795499  0.59999588     0.01000
H1506       H  0.63266796  0.63859143  0.45472033     0.14800
H1507       H  0.69437367  0.64744940  0.51189223     0.14800
N1508       N  0.86505671  0.79758437  0.86965281    -0.01500
C1509       C  0.88079174  0.79212796  0.92781180     0.01100
C1510       C  0.85491028  0.79176052  0.97528901    -0.21800
C1511       C  0.82233964  0.79536045  0.94529536    -0.22000
C1512       C  0.82903502  0.79786651  0.88040061     0.01000
H1513       H  0.85913246  0.78315009  0.02431127     0.14800
H1514       H  0.79715295  0.78858819  0.96619466     0.14800
Zn1515     Zn  0.00171824  0.68888728  0.58319022     1.49700
Zn1516     Zn  0.94854833  0.68629845  0.95702004     1.49400
Zn1517     Zn  0.48865836  0.76574454  0.99787177     1.49100
Zn1518     Zn  0.53228434  0.69208200  0.94197501     1.49500
O1519       O  0.49192824  0.70827298  0.49637320    -1.82100
O1520       O  0.96095013  0.65451475  0.60378937    -0.72800
O1521       O  0.91524818  0.73198827  0.92814892    -0.72600
O1522       O  0.99262418  0.78591425  0.58845395    -0.72100
O1523       O  0.92080544  0.65660245  0.52416105    -0.72800
O1524       O  0.99963617  0.73529472  0.65148370    -0.72400
O1525       O  0.94077590  0.78611621  0.96435814    -0.73000
O1526       O  0.56028168  0.73577350  0.91579705    -0.72400
O1527       O  0.96256302  0.64758847  0.88063192    -0.73100
O1528       O  0.52763889  0.78964574  0.94700376    -0.72500
O1529       O  0.51880521  0.66262115  0.86245899    -0.73000
O1530       O  0.56760002  0.65799931  0.48548212    -0.72900
O1531       O  0.55242387  0.65912571  0.58875083    -0.72700
C1532       C  0.93043052  0.64603913  0.58005975     0.79100
C1533       C  0.91486672  0.76922892  0.93731909     0.79600
C1534       C  0.99650767  0.77212191  0.64388526     0.78600
C1535       C  0.55490290  0.77265606  0.91827757     0.78900
C1536       C  0.49177835  0.64322386  0.84786654     0.80100
C1537       C  0.57473188  0.64946010  0.54287229     0.79100
C1538       C  0.51477013  0.54531649  0.81831846     0.82200
N1539       N  0.48936630  0.57550790  0.81916853    -0.76100
C1540       C  0.49792454  0.61072585  0.79931372     0.84700
N1541       N  0.52761476  0.61197787  0.76131145    -0.76000
C1542       C  0.55352726  0.58192614  0.75835142     0.84700
N1543       N  0.54706049  0.54878273  0.78823609    -0.77800
N1544       N  0.60556901  0.58806023  0.68561813    -0.01500
C1545       C  0.59125909  0.59199136  0.74614923     0.01100
C1546       C  0.59919638  0.62852776  0.77338594    -0.21800
C1547       C  0.61267957  0.64967580  0.72559852    -0.22000
C1548       C  0.61446904  0.62461859  0.67202324     0.01000
H1549       H  0.58951161  0.64125687  0.81944655     0.14800
H1550       H  0.61902763  0.68009411  0.72888470     0.14800
N1551       N  0.62692592  0.55449267  0.66101835    -0.01500
C1552       C  0.61995929  0.54112885  0.59993387     0.01100
C1553       C  0.64991615  0.04020302  0.56056939    -0.21800
C1554       C  0.67765025  0.04987996  0.59909390    -0.22000
C1555       C  0.66394040  0.55526428  0.66108768     0.01000
H1556       H  0.65238495  0.02868662  0.51109715     0.14800
H1557       H  0.70580288  0.04560306  0.58535463     0.14800
N1558       N  0.89584954  0.87730475  0.87376263    -0.01500
C1559       C  0.91448344  0.87703281  0.93021690     0.01100
C1560       C  0.89093862  0.88149052  0.98205913    -0.21800
C1561       C  0.85738750  0.88933615  0.95801400    -0.22000
C1562       C  0.86097283  0.88819928  0.89180565     0.01000
H1563       H  0.89817743  0.88623276  0.03226163     0.14800
H1564       H  0.83367867  0.89901545  0.98623880     0.14800
Zn1565     Zn  0.55788258  0.97578600  0.96628889     1.49700
Zn1566     Zn  0.52072516  0.90043878  0.00241806     1.49400
Zn1567     Zn  0.02322153  0.97596591  0.60258615     1.49100
Zn1568     Zn  0.97395490  0.97937599  0.97373371     1.49500
O1569       O  0.51822034  0.95750549  0.51164846    -1.82100
O1570       O  0.59069877  0.93355222  0.93147298    -0.72800
O1571       O  0.52015793  0.88011125  0.59138951    -0.72600
O1572       O  0.56763377  0.00657885  0.62128904    -0.72100
O1573       O  0.56388397  0.87877644  0.94850606    -0.72800
O1574       O  0.58604639  0.51076721  0.52044872    -0.72400
O1575       O  0.01772597  0.93152514  0.66190777    -0.73000
O1576       O  0.94465631  0.00994734  0.54465176    -0.72400
O1577       O  0.97557690  0.88037344  0.96096747    -0.73100
O1578       O  0.98186387  0.01145277  0.62806344    -0.72500
O1579       O  0.94387194  0.93560823  0.94071382    -0.73000
O1580       O  0.98395746  0.51330138  0.89895817    -0.72900
O1581       O  0.54339371  0.50422272  0.89056572    -0.72700
C1582       C  0.58903189  0.89692314  0.92398788     0.79100
C1583       C  0.01631921  0.89498048  0.64879528     0.79600
C1584       C  0.58881624  0.01939228  0.58018591     0.78600
C1585       C  0.95143691  0.01973853  0.60319846     0.78900
C1586       C  0.94720747  0.89834625  0.94061113     0.80100
C1587       C  0.51359818  0.51864697  0.87069636     0.79100
N1588       N  0.90350477  0.84671219  0.82584461    -0.01500
C1589       C  0.91693614  0.85309466  0.76645437     0.01100
C1590       C  0.89650060  0.83349098  0.72067363    -0.21800
C1591       C  0.87592726  0.80866905  0.75239684    -0.22000
C1592       C  0.88146031  0.81661078  0.81719960     0.01000
H1593       H  0.90245876  0.83009143  0.66956768     0.14800
H1594       H  0.86179148  0.78555955  0.72888573     0.14800
C1595       C  0.99809993  0.80113672  0.69823016     0.82200
N1596       N  0.96827648  0.80884613  0.73556398    -0.76100
C1597       C  0.95626152  0.84653155  0.75271591     0.84700
N1598       N  0.97522950  0.87639995  0.73195483    -0.76000
C1599       C  0.00685950  0.86854364  0.69871468     0.84700
N1600       N  0.51929505  0.83083322  0.68787442    -0.77800
loop_ 
_geom_bond_atom_site_label_1 
_geom_bond_atom_site_label_2 
_geom_bond_distance 
_geom_bond_site_symmetry_2 
_ccdc_geom_bond_type 
N1            C5   1.359       .  A
N1            C2   1.352       .  A
N1           C42   1.446       .  S
C2            C3   1.380       .  A
C2           C34   1.468       .  S
C3            C4   1.369       .  A
C3            H6   1.083       .  S
C4            C5   1.380       .  A
C4            H7   1.078       .  S
C5          C135   1.459       .  S
N8           C12   1.375       .  A
N8            C9   1.358       .  A
N8           N94   1.423       .  S
C9           C10   1.378       .  A
C9           C36   1.453       .  S
C10          C11   1.358       .  A
C10          H13   1.083       .  S
C11          C12   1.384       .  A
C11          H14   1.082       .  S
C12         C132   1.494       .  S
Zn15         O19   1.952       .  S
Zn15         O20   2.049       .  S
Zn15         O24   2.028       .  S
Zn15         O31   1.993       .  S
Zn16         O19   1.952       .  S
Zn16         O21   2.033       .  S
Zn16         O23   2.013       .  S
Zn16         O27   2.010       .  S
Zn17         O19   1.897       .  S
Zn17         O22   1.978       .  S
Zn17         O25   1.943       .  S
Zn17         O28   1.970       .  S
Zn18         O19   1.927       .  S
Zn18         O26   2.037       .  S
Zn18         O29   1.991       .  S
Zn18         O30   1.999       .  S
O20          C32   1.274       .  A
O21          C33   1.274       .  A
O22          C34   1.270       .  A
O23          C32   1.276       .  A
O24          C34   1.275       .  A
O25          C33   1.264       .  A
O26          C35   1.272       .  A
O27          C36   1.270       .  A
O28          C35   1.267       .  A
O29          C36   1.273       .  A
O30          C37   1.269       .  A
O31          C37   1.271       .  A
C32          C88   1.471       .  S
C33         C105   1.452       .  S
C35          C47   1.463       .  S
C37         C112   1.466       .  S
N38          C42   1.374       .  A
N38         C239   1.360       .  A
N38          N51   1.423       .  S
C39         N238   1.360       .  A
C39          C40   1.393   1_556  A
C39          C49   1.477   1_556  S
C40         C241   1.372   1_554  A
C40          H43   1.084       .  S
C41          C42   1.372       .  A
C41         C240   1.372       .  A
C41          H44   1.082       .  S
C45          N46   1.356       .  A
C45          N50   1.371       .  A
C45          C82   1.465       .  S
N46          C47   1.347       .  A
C47          N48   1.354       .  A
N48          C49   1.357       .  A
C49          N50   1.365       .  A
N51          C55   1.357       .  A
N51          C52   1.365       .  A
C52          C53   1.397       .  A
C52          C83   1.502       .  S
C53          C54   1.361       .  A
C53          H56   1.084       .  S
C54          C55   1.369       .  A
C54          H57   1.082       .  S
C55         C182   1.450       .  S
N58          C62   1.353       .  A
N58          C59   1.361       .  A
N58          C98   1.440       .  S
C59         C460   1.381       .  A
C59         C487   1.473       .  S
C60          C61   1.368       .  A
C60         C459   1.381       .  A
C60          H63   1.084       .  S
C61         C462   1.383       .  A
C61          H64   1.079       .  S
C62         C461   1.383       .  A
C62         C585   1.473       .  S
Zn65         O69   1.959       .  S
Zn65         O70   2.024       .  S
Zn65         O74   2.092       .  S
Zn65         O81   2.037       .  S
Zn66         O69   1.916       .  S
Zn66         O71   1.959       .  S
Zn66         O73   2.003       .  S
Zn66         O77   2.031       .  S
Zn67         O69   1.981       .  S
Zn67         O72   2.019       .  S
Zn67         O75   2.117       .  S
Zn67        O478   2.092       .  S
Zn68        O469   1.932   1_545  S
Zn68         O76   1.964       .  S
Zn68         O79   2.035       .  S
Zn68         O80   2.037       .  S
O69        Zn468   1.932       .  S
O70          C82   1.280       .  A
O71          C83   1.270       .  A
O72          C84   1.278       .  A
O73          C82   1.271       .  A
O74          C84   1.280       .  A
O75          C83   1.281       .  A
O76          C85   1.272       .  A
O77          C86   1.269       .  A
O78        Zn467   2.092   1_545  S
O78          C85   1.283       .  A
O79         C486   1.276       .  A
O80         C487   1.274       .  A
O81          C87   1.276       .  A
C84         C162   1.495       .  S
C85          C92   1.474       .  S
C86         C555   1.473       .  S
C86         O479   1.276       .  A
C87         C459   1.473       .  S
C87         O480   1.274       .  A
C88          N89   1.369       .  A
C88          N93   1.355       .  A
N89          C90   1.367       .  A
C90          N91   1.369       .  A
C90         C295   1.489       .  S
N91          C92   1.355       .  A
C92          N93   1.352       .  A
N94          C98   1.358       .  A
N94          C95   1.362       .  A
C95         C296   1.397   1_554  A
C95         C290   1.489       .  S
C96         C295   1.397       .  A
C96         C297   1.375       .  A
C96          H99   1.083       .  S
C97          C98   1.372       .  A
C97         C296   1.375   1_554  A
C97         H100   1.081       .  S
N101        C105   1.348       .  A
N101        C102   1.354       .  A
N101        C148   1.429       .  S
C102        C103   1.390       .  A
C102        C137   1.486       .  S
C103        C104   1.371       .  A
C103        H106   1.082   1_554  S
C104        C105   1.375       .  A
C104        H107   1.078       .  S
N108        C112   1.357       .  A
N108        C109   1.359       .  A
N108        C192   1.450       .  S
C109        C110   1.378       .  A
C109        C133   1.467       .  S
C110        C111   1.364       .  A
C110        H113   1.083       .  S
C111        C112   1.378       .  A
C111        H114   1.075       .  S
Zn115       O919   1.980   1_554  S
Zn115       O120   2.034       .  S
Zn115       O124   2.074       .  S
Zn115       O931   2.093       .  S
Zn116      O1119   1.982       .  S
Zn116       O121   2.050       .  S
Zn116       O127   2.061       .  S
Zn116       O323   2.077       .  S
Zn117       O319   1.964       .  S
Zn117       O128   2.029   1_655  S
Zn117      O1122   1.981       .  S
Zn117       O925   2.010       .  S
Zn118       O319   1.915   1_455  S
Zn118       O126   1.974       .  S
Zn118       O129   1.973       .  S
Zn118       O330   1.956       .  S
O119       Zn915   1.980   1_656  S
O119      Zn1116   1.982       .  S
O119       Zn317   1.964       .  S
O119       Zn318   1.915   1_655  S
O120        C132   1.282       .  A
O121        C133   1.280       .  A
O122      Zn1117   1.980   1_554  S
O122        C134   1.272       .  A
O123       Zn316   2.077   1_554  S
O123        C132   1.279       .  A
O124        C134   1.278       .  A
O125       Zn917   2.010       .  S
O125        C133   1.271       .  A
O126        C135   1.266       .  A
O127        C936   1.278       .  A
O128        C135   1.270       .  A
O129        C136   1.268   1_455  A
O130       Zn318   1.956       .  S
O130        C137   1.266   1_556  A
O131       Zn915   2.093       .  S
O131        C137   1.280       .  A
C134        C195   1.470       .  S
C136        C140   1.471       .  S
C136        O927   1.278       .  A
C138        N139   1.356   1_455  A
C138        N143   1.367       .  A
C138        C187   1.458       .  S
N139        C140   1.351       .  A
C140        N141   1.360   1_655  A
N141        C142   1.365       .  A
C142        N143   1.356       .  A
C142        C145   1.490       .  S
N144        C148   1.359       .  A
N144        C145   1.362       .  A
N144        N151   1.429       .  S
C145        C146   1.396       .  A
C146        C147   1.370       .  A
C146        H149   1.083       .  S
C147        C148   1.370       .  A
C147        H150   1.082       .  S
N151        C155   1.378       .  A
N151        C152   1.358       .  A
C152        C553   1.378       .  A
C152        C584   1.463       .  S
C153        C154   1.353       .  A
C153        C552   1.378       .  A
C153        H156   1.084       .  S
C154        C555   1.384       .  A
C154        H157   1.084       .  S
C155        C554   1.384       .  A
C155        C486   1.473       .  S
N158        C162   1.373       .  A
N158        C159   1.363       .  A
N158        N188   1.424       .  S
C159        C160   1.383       .  A
C159        C186   1.468       .  S
C160        C161   1.361       .  A
C160        H163   1.084       .  S
C161        C162   1.380       .  A
C161        H164   1.083       .  S
Zn165       O369   1.904       .  S
Zn165       O170   1.944       .  S
Zn165       O774   1.955       .  S
Zn165       O581   1.951       .  S
Zn166       O369   1.952       .  S
Zn166       O173   2.035       .  S
Zn166       O371   2.008       .  S
Zn166       O977   2.030   1_455  S
Zn167       O969   1.974       .  S
Zn167       O175   2.027       .  S
Zn167       O178   1.955       .  S
Zn167       O972   2.038       .  S
Zn168      O1169   1.949       .  S
Zn168       O179   2.019       .  S
Zn168       O376   2.038       .  S
Zn168       O580   2.034       .  S
O169       Zn365   1.904   1_554  S
O169       Zn366   1.952       .  S
O169       Zn967   1.974       .  S
O169      Zn1168   1.949   1_454  S
O170        C182   1.262       .  A
O171       Zn366   2.008       .  S
O171        C983   1.277       .  A
O172       Zn967   2.038       .  S
O172        C184   1.273       .  A
O173        C182   1.274       .  A
O174       Zn765   1.955   1_544  S
O174        C584   1.267       .  A
O175        C183   1.272       .  A
O176       Zn368   2.038   1_554  S
O176        C185   1.275       .  A
O177       Zn966   2.030       .  S
O177        C186   1.272       .  A
O178        C185   1.266       .  A
O179        C186   1.275       .  A
O180       Zn568   2.034   1_545  S
O180        C987   1.275       .  A
O181       Zn565   1.951   1_545  S
O181        C187   1.263       .  A
C183        C199   1.467       .  S
C183        O971   1.277       .  A
C184        C552   1.463       .  S
C184        O574   1.267       .  A
C185        C462   1.473       .  S
C187        O980   1.275   1_455  A
N188        C192   1.362       .  A
N188        C189   1.363       .  A
C189        C190   1.391       .  A
C189        C197   1.490       .  S
C190        C191   1.371       .  A
C190        H193   1.083       .  S
C191        C192   1.378       .  A
C191        H194   1.075       .  S
C195        N196   1.357       .  A
C195       N1000   1.351       .  A
N196        C197   1.370       .  A
C197        N198   1.365       .  A
N198        C199   1.368       .  A
C199       N1000   1.353       .  A
N200        C995   1.351   1_455  A
N200        C999   1.353       .  A
N201        C205   1.359       .  A
N201        C202   1.352       .  A
N201        C242   1.446       .  S
C202        C203   1.380       .  A
C202        C234   1.468       .  S
C203        C204   1.369       .  A
C203        H206   1.083       .  S
C204        C205   1.380       .  A
C204        H207   1.078       .  S
C205        C335   1.459       .  S
N208        C212   1.375       .  A
N208        C209   1.358       .  A
N208        N294   1.423       .  S
C209        C210   1.378       .  A
C209        C236   1.453       .  S
C210        C211   1.358       .  A
C210        H213   1.083       .  S
C211        C212   1.384       .  A
C211        H214   1.082       .  S
C212        C332   1.494       .  S
Zn215       O219   1.952       .  S
Zn215       O220   2.049       .  S
Zn215       O224   2.028       .  S
Zn215       O231   1.993       .  S
Zn216       O219   1.952       .  S
Zn216       O221   2.033       .  S
Zn216       O223   2.013       .  S
Zn216       O227   2.010       .  S
Zn217       O219   1.897       .  S
Zn217       O222   1.978       .  S
Zn217       O225   1.943       .  S
Zn217       O228   1.970       .  S
Zn218       O219   1.927       .  S
Zn218       O226   2.037       .  S
Zn218       O229   1.991       .  S
Zn218       O230   1.999       .  S
O220        C232   1.274       .  A
O221        C233   1.274       .  A
O222        C234   1.270       .  A
O223        C232   1.276       .  A
O224        C234   1.275       .  A
O225        C233   1.264       .  A
O226        C235   1.272       .  A
O227        C236   1.270       .  A
O228        C235   1.267       .  A
O229        C236   1.273       .  A
O230        C237   1.269       .  A
O231        C237   1.271       .  A
C232        C288   1.471       .  S
C233        C305   1.452       .  S
C235        C247   1.463       .  S
C237        C312   1.466       .  S
N238        C242   1.374       .  A
N238        N251   1.423       .  S
C239        C240   1.393       .  A
C239        C249   1.477       .  S
C240        H243   1.084       .  S
C241        C242   1.372       .  A
C241        H244   1.082   1_556  S
C245        N246   1.356       .  A
C245        N250   1.371       .  A
C245        C282   1.465       .  S
N246        C247   1.347       .  A
C247        N248   1.354       .  A
N248        C249   1.357       .  A
C249        N250   1.365       .  A
N251        C255   1.357       .  A
N251        C252   1.365       .  A
C252        C253   1.397       .  A
C252        C283   1.502       .  S
C253        C254   1.361       .  A
C253        H256   1.084       .  S
C254        C255   1.369       .  A
C254        H257   1.082       .  S
C255        C382   1.450       .  S
N258        C262   1.353       .  A
N258        C259   1.361       .  A
N258        C298   1.440       .  S
C259        C660   1.381       .  A
C259        C687   1.473       .  S
C260        C659   1.381       .  A
C260        C261   1.368       .  A
C260        H263   1.084       .  S
C261        C662   1.383       .  A
C261        H264   1.080       .  S
C262        C661   1.383       .  A
C262        C785   1.473       .  S
Zn265       O269   1.959       .  S
Zn265       O270   2.024       .  S
Zn265       O274   2.091       .  S
Zn265       O281   2.037       .  S
Zn266       O269   1.916       .  S
Zn266       O271   1.959       .  S
Zn266       O273   2.003       .  S
Zn266       O277   2.031       .  S
Zn267       O269   1.981       .  S
Zn267       O272   2.019       .  S
Zn267       O275   2.117       .  S
Zn267       O678   2.092       .  S
Zn268       O669   1.932   1_545  S
Zn268       O276   1.964       .  S
Zn268       O279   2.035       .  S
Zn268       O280   2.037       .  S
O269       Zn668   1.932       .  S
O270        C282   1.280       .  A
O271        C283   1.270       .  A
O272        C284   1.278       .  A
O273        C282   1.271       .  A
O274        C284   1.280       .  A
O275        C283   1.281       .  A
O276        C285   1.272       .  A
O277        C286   1.270       .  A
O278       Zn667   2.092   1_545  S
O278        C285   1.283       .  A
O279        C686   1.276       .  A
O280        C687   1.274       .  A
O281        C287   1.276       .  A
C284        C362   1.495       .  S
C285        C292   1.474       .  S
C286        C755   1.473       .  S
C286        O679   1.276       .  A
C287        C659   1.473       .  S
C287        O680   1.274       .  A
C288        N289   1.369       .  A
C288        N293   1.355       .  A
N289        C290   1.367   1_556  A
C290        N291   1.369       .  A
N291        C292   1.355   1_554  A
C292        N293   1.352       .  A
N294        C298   1.358       .  A
N294        C295   1.362       .  A
C296        H299   1.083       .  S
C297        C298   1.372       .  A
C297        H300   1.081       .  S
N301        C305   1.348       .  A
N301        C302   1.354       .  A
N301        C348   1.429       .  S
C302        C303   1.390       .  A
C302        C337   1.486       .  S
C303        C304   1.371       .  A
C303        H306   1.082       .  S
C304        C305   1.375       .  A
C304        H307   1.078       .  S
N308        C312   1.357       .  A
N308        C309   1.359       .  A
N308        C392   1.450       .  S
C309        C310   1.378       .  A
C309        C333   1.467       .  S
C310        C311   1.364       .  A
C310        H313   1.083   1_556  S
C311        C312   1.378       .  A
C311        H314   1.075       .  S
Zn315      O1119   1.980       .  S
Zn315       O320   2.034       .  S
Zn315       O324   2.074       .  S
Zn315      O1131   2.093       .  S
Zn316       O919   1.982       .  S
Zn316       O321   2.050       .  S
Zn316       O327   2.061       .  S
Zn317       O922   1.980   1_556  S
Zn317      O1125   2.010       .  S
Zn317       O328   2.029   1_655  S
Zn318       O326   1.974       .  S
Zn318       O329   1.973       .  S
O319      Zn1115   1.980   1_655  S
O319       Zn916   1.982       .  S
O320        C332   1.282       .  A
O321        C333   1.280       .  A
O322       Zn917   1.981       .  S
O322        C334   1.272       .  A
O323        C332   1.279       .  A
O324        C334   1.278       .  A
O325      Zn1117   2.010       .  S
O325        C333   1.271       .  A
O326        C335   1.266       .  A
O327       C1136   1.278       .  A
O328        C335   1.270       .  A
O329        C336   1.268   1_455  A
O330        C337   1.266       .  A
O331      Zn1115   2.093       .  S
O331        C337   1.280       .  A
C334        C395   1.470       .  S
C336        C340   1.471       .  S
C336       O1127   1.278       .  A
C338        N339   1.356   1_455  A
C338        N343   1.367       .  A
C338        C387   1.458       .  S
N339        C340   1.351       .  A
C340        N341   1.360   1_655  A
N341        C342   1.365       .  A
C342        N343   1.356       .  A
C342        C345   1.490       .  S
N344        C348   1.359       .  A
N344        C345   1.362       .  A
N344        N351   1.429       .  S
C345        C346   1.396       .  A
C346        C347   1.370       .  A
C346        H349   1.083       .  S
C347        C348   1.370       .  A
C347        H350   1.082       .  S
N351        C355   1.378       .  A
N351        C352   1.358       .  A
C352        C753   1.378       .  A
C352        C784   1.463       .  S
C353        C752   1.378       .  A
C353        C354   1.353       .  A
C353        H356   1.084       .  S
C354        C755   1.384       .  A
C354        H357   1.084       .  S
C355        C754   1.384       .  A
C355        C686   1.473       .  S
N358        C362   1.373       .  A
N358        C359   1.363       .  A
N358        N388   1.424       .  S
C359        C360   1.383       .  A
C359        C386   1.468       .  S
C360        C361   1.361       .  A
C360        H363   1.084   1_556  S
C361        C362   1.380       .  A
C361        H364   1.083       .  S
Zn365       O370   1.944       .  S
Zn365       O574   1.955   1_556  S
Zn365       O781   1.951       .  S
Zn366       O373   2.035   1_554  S
Zn366      O1177   2.030   1_454  S
Zn367      O1169   1.974       .  S
Zn367      O1172   2.038       .  S
Zn367       O375   2.027       .  S
Zn367       O378   1.955       .  S
Zn368       O969   1.949   1_556  S
Zn368       O379   2.019       .  S
Zn368       O780   2.034       .  S
O369      Zn1167   1.974       .  S
O369       Zn968   1.949   1_455  S
O370        C382   1.262       .  A
O371       C1183   1.277       .  A
O372      Zn1167   2.038       .  S
O372        C384   1.273       .  A
O373        C382   1.274       .  A
O374       Zn565   1.955   1_545  S
O374        C784   1.267       .  A
O375        C383   1.272       .  A
O376        C385   1.275       .  A
O377      Zn1166   2.030   1_556  S
O377        C386   1.272       .  A
O378        C385   1.266       .  A
O379        C386   1.275       .  A
O380       Zn768   2.034   1_545  S
O380       C1187   1.275       .  A
O381       Zn765   1.951   1_545  S
O381        C387   1.263       .  A
C383        C399   1.467       .  S
C383       O1171   1.277       .  A
C384        C752   1.463       .  S
C384        O774   1.267       .  A
C385        C662   1.473       .  S
C387       O1180   1.275   1_455  A
N388        C392   1.362       .  A
N388        C389   1.363       .  A
C389        C390   1.391       .  A
C389        C397   1.490       .  S
C390        C391   1.371       .  A
C390        H393   1.083       .  S
C391        C392   1.378       .  A
C391        H394   1.075       .  S
C395        N396   1.357       .  A
C395       N1200   1.351       .  A
N396        C397   1.370       .  A
C397        N398   1.365       .  A
N398        C399   1.368       .  A
C399       N1200   1.353       .  A
N400       C1195   1.351   1_455  A
N400       C1199   1.353       .  A
N401        C405   1.359       .  A
N401        C402   1.352       .  A
N401        C442   1.446       .  S
C402        C403   1.380       .  A
C402        C434   1.468       .  S
C403        C404   1.369       .  A
C403        H406   1.083       .  S
C404        C405   1.380       .  A
C404        H407   1.078       .  S
C405        C535   1.459       .  S
N408        C412   1.375       .  A
N408        C409   1.358       .  A
N408        N494   1.423       .  S
C409        C410   1.378       .  A
C409        C436   1.453       .  S
C410        C411   1.358       .  A
C410        H413   1.083       .  S
C411        C412   1.384       .  A
C411        H414   1.082       .  S
C412        C532   1.494       .  S
Zn415       O419   1.952       .  S
Zn415       O420   2.049       .  S
Zn415       O424   2.028       .  S
Zn415       O431   1.993       .  S
Zn416       O419   1.952       .  S
Zn416       O421   2.033       .  S
Zn416       O423   2.013       .  S
Zn416       O427   2.010       .  S
Zn417       O419   1.897       .  S
Zn417       O422   1.978       .  S
Zn417       O425   1.943       .  S
Zn417       O428   1.970       .  S
Zn418       O419   1.927       .  S
Zn418       O426   2.037       .  S
Zn418       O429   1.991       .  S
Zn418       O430   1.999       .  S
O420        C432   1.274       .  A
O421        C433   1.274       .  A
O422        C434   1.270       .  A
O423        C432   1.276       .  A
O424        C434   1.275       .  A
O425        C433   1.264       .  A
O426        C435   1.272       .  A
O427        C436   1.270       .  A
O428        C435   1.267       .  A
O429        C436   1.273       .  A
O430        C437   1.269       .  A
O431        C437   1.271       .  A
C432        C488   1.471       .  S
C433        C505   1.452       .  S
C435        C447   1.463       .  S
C437        C512   1.466       .  S
N438        C442   1.374       .  A
N438        C639   1.360       .  A
N438        N451   1.423       .  S
C439        N638   1.360       .  A
C439        C440   1.393   1_556  A
C439        C449   1.477   1_556  S
C440        C641   1.372   1_554  A
C440        H443   1.084       .  S
C441        C640   1.372       .  A
C441        C442   1.372       .  A
C441        H444   1.082       .  S
C445        N446   1.356       .  A
C445        N450   1.371       .  A
C445        C482   1.465       .  S
N446        C447   1.347       .  A
C447        N448   1.354       .  A
N448        C449   1.357       .  A
C449        N450   1.365       .  A
N451        C455   1.357       .  A
N451        C452   1.365       .  A
C452        C453   1.397       .  A
C452        C483   1.502       .  S
C453        C454   1.361       .  A
C453        H456   1.084       .  S
C454        C455   1.369       .  A
C454        H457   1.082       .  S
C455        C582   1.450       .  S
N458        C462   1.353       .  A
N458        C459   1.361       .  A
N458        C498   1.440       .  S
C460        C461   1.368       .  A
C460        H463   1.084       .  S
C461        H464   1.079       .  S
Zn465       O469   1.959       .  S
Zn465       O470   2.024       .  S
Zn465       O474   2.092       .  S
Zn465       O481   2.037       .  S
Zn466       O469   1.916       .  S
Zn466       O471   1.959       .  S
Zn466       O473   2.003       .  S
Zn466       O477   2.031   1_565  S
Zn467       O469   1.981       .  S
Zn467       O472   2.019       .  S
Zn467       O475   2.117       .  S
Zn468       O476   1.964       .  S
Zn468       O479   2.035       .  S
Zn468       O480   2.037       .  S
O470        C482   1.280       .  A
O471        C483   1.270       .  A
O472        C484   1.278       .  A
O473        C482   1.271       .  A
O474        C484   1.280       .  A
O475        C483   1.281       .  A
O476        C485   1.272       .  A
O477        C486   1.269       .  A
O478        C485   1.283       .  A
O481        C487   1.276   1_565  A
C484        C562   1.495       .  S
C485        C492   1.474       .  S
C488        N489   1.369       .  A
C488        N493   1.355       .  A
N489        C490   1.367       .  A
C490        N491   1.369       .  A
C490        C695   1.489       .  S
N491        C492   1.355       .  A
C492        N493   1.352       .  A
N494        C498   1.358       .  A
N494        C495   1.362       .  A
C495        C696   1.397   1_554  A
C495        C690   1.489       .  S
C496        C695   1.397       .  A
C496        C697   1.375       .  A
C496        H499   1.083       .  S
C497        C696   1.375   1_554  A
C497        C498   1.372       .  A
C497        H500   1.081       .  S
N501        C505   1.348       .  A
N501        C502   1.354       .  A
N501        C548   1.429       .  S
C502        C503   1.390       .  A
C502        C537   1.486       .  S
C503        C504   1.371       .  A
C503        H506   1.082   1_554  S
C504        C505   1.375       .  A
C504        H507   1.078       .  S
N508        C512   1.357       .  A
N508        C509   1.359       .  A
N508        C592   1.450       .  S
C509        C510   1.378       .  A
C509        C533   1.467       .  S
C510        C511   1.364       .  A
C510        H513   1.083       .  S
C511        C512   1.378       .  A
C511        H514   1.075       .  S
Zn515      O1319   1.980   1_554  S
Zn515       O520   2.034       .  S
Zn515       O524   2.074       .  S
Zn515      O1331   2.093       .  S
Zn516      O1519   1.982       .  S
Zn516       O521   2.050       .  S
Zn516       O723   2.077       .  S
Zn516       O527   2.061       .  S
Zn517       O719   1.964       .  S
Zn517      O1522   1.981       .  S
Zn517      O1325   2.010       .  S
Zn517       O528   2.029   1_655  S
Zn518       O719   1.915   1_455  S
Zn518       O526   1.974       .  S
Zn518       O529   1.973       .  S
Zn518       O730   1.956       .  S
O519      Zn1315   1.980   1_656  S
O519      Zn1516   1.982       .  S
O519       Zn717   1.964       .  S
O519       Zn718   1.915   1_655  S
O520        C532   1.282       .  A
O521        C533   1.280       .  A
O522      Zn1517   1.980   1_554  S
O522        C534   1.272       .  A
O523       Zn716   2.077   1_554  S
O523        C532   1.279       .  A
O524        C534   1.278       .  A
O525      Zn1317   2.010       .  S
O525        C533   1.271       .  A
O526        C535   1.266       .  A
O527       C1336   1.278       .  A
O528        C535   1.270       .  A
O529        C536   1.268   1_455  A
O530       Zn718   1.956       .  S
O530        C537   1.266   1_556  A
O531      Zn1315   2.093       .  S
O531        C537   1.280       .  A
C534        C595   1.470       .  S
C536        C540   1.471       .  S
C536       O1327   1.278       .  A
C538        N539   1.356   1_455  A
C538        N543   1.367       .  A
C538        C587   1.458       .  S
N539        C540   1.351       .  A
C540        N541   1.360   1_655  A
N541        C542   1.365       .  A
C542        N543   1.356       .  A
C542        C545   1.490       .  S
N544        C548   1.359       .  A
N544        C545   1.362       .  A
N544        N551   1.429       .  S
C545        C546   1.396       .  A
C546        C547   1.370       .  A
C546        H549   1.083       .  S
C547        C548   1.370       .  A
C547        H550   1.082       .  S
N551        C555   1.378       .  A
N551        C552   1.358       .  A
C553        C554   1.353       .  A
C553        H556   1.084       .  S
C554        H557   1.084       .  S
N558        C562   1.373       .  A
N558        C559   1.363       .  A
N558        N588   1.424       .  S
C559        C560   1.383       .  A
C559        C586   1.468       .  S
C560        C561   1.361       .  A
C560        H563   1.084       .  S
C561        C562   1.380       .  A
C561        H564   1.083       .  S
Zn565       O769   1.904       .  S
Zn565       O570   1.944       .  S
Zn566       O769   1.952       .  S
Zn566       O771   2.008       .  S
Zn566       O573   2.035       .  S
Zn566      O1377   2.030   1_455  S
Zn567      O1369   1.974       .  S
Zn567      O1372   2.038   1_565  S
Zn567       O575   2.027       .  S
Zn567       O578   1.955   1_565  S
Zn568      O1569   1.949       .  S
Zn568       O776   2.038   1_565  S
Zn568       O579   2.019       .  S
O569       Zn765   1.904   1_554  S
O569       Zn766   1.952       .  S
O569      Zn1367   1.974       .  S
O569      Zn1568   1.949   1_454  S
O570        C582   1.262       .  A
O571       Zn766   2.008       .  S
O571       C1383   1.277       .  A
O572      Zn1367   2.038   1_545  S
O572        C584   1.273       .  A
O573        C582   1.274       .  A
O575        C583   1.272       .  A
O576       Zn768   2.038   1_544  S
O576        C585   1.275       .  A
O577      Zn1366   2.030       .  S
O577        C586   1.272       .  A
O578        C585   1.266       .  A
O579        C586   1.275       .  A
O580       C1387   1.275       .  A
O581        C587   1.263       .  A
C583        C599   1.467       .  S
C583       O1371   1.277       .  A
C587       O1380   1.275   1_455  A
N588        C592   1.362       .  A
N588        C589   1.363       .  A
C589        C590   1.391       .  A
C589        C597   1.490       .  S
C590        C591   1.371       .  A
C590        H593   1.083       .  S
C591        C592   1.378       .  A
C591        H594   1.075       .  S
C595        N596   1.357       .  A
C595       N1400   1.351       .  A
N596        C597   1.370       .  A
C597        N598   1.365       .  A
N598        C599   1.368       .  A
C599       N1400   1.353       .  A
N600       C1395   1.351   1_455  A
N600       C1399   1.353       .  A
N601        C605   1.359       .  A
N601        C602   1.352       .  A
N601        C642   1.446       .  S
C602        C603   1.380       .  A
C602        C634   1.468       .  S
C603        C604   1.369       .  A
C603        H606   1.083       .  S
C604        C605   1.380       .  A
C604        H607   1.078       .  S
C605        C735   1.459       .  S
N608        C612   1.375       .  A
N608        C609   1.358       .  A
N608        N694   1.423       .  S
C609        C610   1.378       .  A
C609        C636   1.453       .  S
C610        C611   1.358       .  A
C610        H613   1.083       .  S
C611        C612   1.384       .  A
C611        H614   1.082       .  S
C612        C732   1.494       .  S
Zn615       O619   1.952       .  S
Zn615       O620   2.049       .  S
Zn615       O624   2.028       .  S
Zn615       O631   1.993       .  S
Zn616       O619   1.952       .  S
Zn616       O621   2.033       .  S
Zn616       O623   2.013       .  S
Zn616       O627   2.010       .  S
Zn617       O619   1.897       .  S
Zn617       O622   1.978       .  S
Zn617       O625   1.943       .  S
Zn617       O628   1.970       .  S
Zn618       O619   1.927       .  S
Zn618       O626   2.037       .  S
Zn618       O629   1.991       .  S
Zn618       O630   1.999       .  S
O620        C632   1.274       .  A
O621        C633   1.274       .  A
O622        C634   1.270       .  A
O623        C632   1.276       .  A
O624        C634   1.275       .  A
O625        C633   1.264       .  A
O626        C635   1.272       .  A
O627        C636   1.270       .  A
O628        C635   1.267       .  A
O629        C636   1.273       .  A
O630        C637   1.269       .  A
O631        C637   1.271       .  A
C632        C688   1.471       .  S
C633        C705   1.452       .  S
C635        C647   1.463       .  S
C637        C712   1.466       .  S
N638        C642   1.374       .  A
N638        N651   1.423       .  S
C639        C640   1.393       .  A
C639        C649   1.477       .  S
C640        H643   1.084       .  S
C641        C642   1.372       .  A
C641        H644   1.082   1_556  S
C645        N646   1.356       .  A
C645        N650   1.371       .  A
C645        C682   1.465       .  S
N646        C647   1.347       .  A
C647        N648   1.354       .  A
N648        C649   1.357       .  A
C649        N650   1.365       .  A
N651        C655   1.357       .  A
N651        C652   1.365       .  A
C652        C653   1.397       .  A
C652        C683   1.502       .  S
C653        C654   1.361       .  A
C653        H656   1.084       .  S
C654        C655   1.369       .  A
C654        H657   1.082       .  S
C655        C782   1.450       .  S
N658        C662   1.353       .  A
N658        C659   1.361       .  A
N658        C698   1.440       .  S
C660        C661   1.368       .  A
C660        H663   1.084       .  S
C661        H664   1.079       .  S
Zn665       O669   1.959       .  S
Zn665       O670   2.024       .  S
Zn665       O674   2.091       .  S
Zn665       O681   2.037       .  S
Zn666       O669   1.916       .  S
Zn666       O671   1.959       .  S
Zn666       O673   2.003       .  S
Zn666       O677   2.031   1_565  S
Zn667       O669   1.981       .  S
Zn667       O672   2.019       .  S
Zn667       O675   2.117       .  S
Zn668       O676   1.964       .  S
Zn668       O679   2.035       .  S
Zn668       O680   2.037       .  S
O670        C682   1.280       .  A
O671        C683   1.270       .  A
O672        C684   1.278       .  A
O673        C682   1.271       .  A
O674        C684   1.280       .  A
O675        C683   1.281       .  A
O676        C685   1.272       .  A
O677        C686   1.270       .  A
O678        C685   1.283       .  A
O681        C687   1.276   1_565  A
C684        C762   1.495       .  S
C685        C692   1.474       .  S
C688        N689   1.369       .  A
C688        N693   1.355       .  A
N689        C690   1.367   1_556  A
C690        N691   1.369       .  A
N691        C692   1.355   1_554  A
C692        N693   1.352       .  A
N694        C698   1.358       .  A
N694        C695   1.362       .  A
C696        H699   1.083       .  S
C697        C698   1.372       .  A
C697        H700   1.081       .  S
N701        C705   1.348       .  A
N701        C702   1.354       .  A
N701        C748   1.429       .  S
C702        C703   1.390       .  A
C702        C737   1.486       .  S
C703        C704   1.371       .  A
C703        H706   1.082       .  S
C704        C705   1.375       .  A
C704        H707   1.078       .  S
N708        C712   1.357       .  A
N708        C709   1.359       .  A
N708        C792   1.450       .  S
C709        C710   1.378       .  A
C709        C733   1.467       .  S
C710        C711   1.364       .  A
C710        H713   1.083   1_556  S
C711        C712   1.378       .  A
C711        H714   1.075       .  S
Zn715      O1519   1.980       .  S
Zn715       O720   2.034       .  S
Zn715       O724   2.074       .  S
Zn715      O1531   2.093       .  S
Zn716      O1319   1.982       .  S
Zn716       O721   2.050       .  S
Zn716       O727   2.061       .  S
Zn717      O1322   1.980   1_556  S
Zn717      O1525   2.010       .  S
Zn717       O728   2.029   1_655  S
Zn718       O726   1.974       .  S
Zn718       O729   1.973       .  S
O719      Zn1515   1.980   1_655  S
O719      Zn1316   1.982       .  S
O720        C732   1.282       .  A
O721        C733   1.280       .  A
O722      Zn1317   1.981       .  S
O722        C734   1.272       .  A
O723        C732   1.279       .  A
O724        C734   1.278       .  A
O725      Zn1517   2.010       .  S
O725        C733   1.271       .  A
O726        C735   1.266       .  A
O727       C1536   1.278       .  A
O728        C735   1.270       .  A
O729        C736   1.268   1_455  A
O730        C737   1.266       .  A
O731      Zn1515   2.093       .  S
O731        C737   1.280       .  A
C734        C795   1.470       .  S
C736        C740   1.471       .  S
C736       O1527   1.278       .  A
C738        N739   1.356   1_455  A
C738        N743   1.367       .  A
C738        C787   1.458       .  S
N739        C740   1.351       .  A
C740        N741   1.360   1_655  A
N741        C742   1.365       .  A
C742        N743   1.356       .  A
C742        C745   1.490       .  S
N744        C748   1.359       .  A
N744        C745   1.362       .  A
N744        N751   1.429       .  S
C745        C746   1.396       .  A
C746        C747   1.370       .  A
C746        H749   1.083       .  S
C747        C748   1.370       .  A
C747        H750   1.082       .  S
N751        C755   1.378       .  A
N751        C752   1.358       .  A
C753        C754   1.353       .  A
C753        H756   1.084       .  S
C754        H757   1.084       .  S
N758        C762   1.373       .  A
N758        C759   1.363       .  A
N758        N788   1.424       .  S
C759        C760   1.383       .  A
C759        C786   1.468       .  S
C760        C761   1.361       .  A
C760        H763   1.084   1_556  S
C761        C762   1.380       .  A
C761        H764   1.083       .  S
Zn765       O770   1.944       .  S
Zn766       O773   2.035   1_554  S
Zn766      O1577   2.030   1_454  S
Zn767      O1569   1.974       .  S
Zn767      O1572   2.038   1_565  S
Zn767       O775   2.027       .  S
Zn767       O778   1.955   1_565  S
Zn768      O1369   1.949   1_556  S
Zn768       O779   2.019       .  S
O769      Zn1567   1.974       .  S
O769      Zn1368   1.949   1_455  S
O770        C782   1.262       .  A
O771       C1583   1.277       .  A
O772      Zn1567   2.038   1_545  S
O772        C784   1.273       .  A
O773        C782   1.274       .  A
O775        C783   1.272       .  A
O776        C785   1.275       .  A
O777      Zn1566   2.030   1_556  S
O777        C786   1.272       .  A
O778        C785   1.266       .  A
O779        C786   1.275       .  A
O780       C1587   1.275       .  A
O781        C787   1.263       .  A
C783        C799   1.467       .  S
C783       O1571   1.277       .  A
C787       O1580   1.275   1_455  A
N788        C792   1.362       .  A
N788        C789   1.363       .  A
C789        C790   1.391       .  A
C789        C797   1.490       .  S
C790        C791   1.371       .  A
C790        H793   1.083       .  S
C791        C792   1.378       .  A
C791        H794   1.075       .  S
C795        N796   1.357       .  A
C795       N1600   1.351       .  A
N796        C797   1.370       .  A
C797        N798   1.365       .  A
N798        C799   1.368       .  A
C799       N1600   1.353       .  A
N800       C1595   1.351   1_455  A
N800       C1599   1.353       .  A
N801        C805   1.359       .  A
N801        C802   1.352       .  A
N801        C842   1.446       .  S
C802        C803   1.380       .  A
C802        C834   1.468       .  S
C803        C804   1.369       .  A
C803        H806   1.083       .  S
C804        C805   1.380       .  A
C804        H807   1.078       .  S
C805        C935   1.459       .  S
N808        C812   1.375       .  A
N808        C809   1.358       .  A
N808        N894   1.423       .  S
C809        C810   1.378       .  A
C809        C836   1.453       .  S
C810        C811   1.358       .  A
C810        H813   1.083       .  S
C811        C812   1.384       .  A
C811        H814   1.082       .  S
C812        C932   1.494       .  S
Zn815       O819   1.952       .  S
Zn815       O820   2.049       .  S
Zn815       O824   2.028       .  S
Zn815       O831   1.993       .  S
Zn816       O819   1.952       .  S
Zn816       O821   2.033       .  S
Zn816       O823   2.013       .  S
Zn816       O827   2.010       .  S
Zn817       O819   1.897       .  S
Zn817       O822   1.978       .  S
Zn817       O825   1.943       .  S
Zn817       O828   1.970       .  S
Zn818       O819   1.927       .  S
Zn818       O826   2.037       .  S
Zn818       O829   1.991       .  S
Zn818       O830   1.999       .  S
O820        C832   1.274       .  A
O821        C833   1.274       .  A
O822        C834   1.270       .  A
O823        C832   1.276       .  A
O824        C834   1.275       .  A
O825        C833   1.264       .  A
O826        C835   1.272       .  A
O827        C836   1.270       .  A
O828        C835   1.267       .  A
O829        C836   1.273       .  A
O830        C837   1.269       .  A
O831        C837   1.271       .  A
C832        C888   1.471       .  S
C833        C905   1.452       .  S
C835        C847   1.463       .  S
C837        C912   1.466       .  S
N838        C842   1.374       .  A
N838       C1039   1.360       .  A
N838        N851   1.423       .  S
C839       N1038   1.360       .  A
C839        C840   1.393   1_556  A
C839        C849   1.477   1_556  S
C840       C1041   1.372   1_554  A
C840        H843   1.084       .  S
C841       C1040   1.372       .  A
C841        C842   1.372       .  A
C841        H844   1.082       .  S
C845        N846   1.356       .  A
C845        N850   1.371       .  A
C845        C882   1.465       .  S
N846        C847   1.347       .  A
C847        N848   1.354       .  A
N848        C849   1.357       .  A
C849        N850   1.365       .  A
N851        C855   1.357       .  A
N851        C852   1.365       .  A
C852        C853   1.397       .  A
C852        C883   1.502       .  S
C853        C854   1.361       .  A
C853        H856   1.084       .  S
C854        C855   1.369       .  A
C854        H857   1.082       .  S
C855        C982   1.450       .  S
N858        C862   1.353       .  A
N858        C859   1.361       .  A
N858        C898   1.440       .  S
C859       C1260   1.381       .  A
C859       C1287   1.473       .  S
C860       C1259   1.381       .  A
C860        C861   1.368       .  A
C860        H863   1.084       .  S
C861       C1262   1.383       .  A
C861        H864   1.079       .  S
C862       C1261   1.383       .  A
C862       C1385   1.473       .  S
Zn865       O869   1.959       .  S
Zn865       O870   2.024       .  S
Zn865       O874   2.092       .  S
Zn865       O881   2.037       .  S
Zn866       O869   1.916       .  S
Zn866       O871   1.959       .  S
Zn866       O873   2.003       .  S
Zn866       O877   2.031       .  S
Zn867       O869   1.981       .  S
Zn867       O872   2.019       .  S
Zn867       O875   2.117       .  S
Zn867      O1278   2.092       .  S
Zn868      O1269   1.932   1_545  S
Zn868       O876   1.964       .  S
Zn868       O879   2.035       .  S
Zn868       O880   2.037       .  S
O869      Zn1268   1.932       .  S
O870        C882   1.280       .  A
O871        C883   1.270       .  A
O872        C884   1.278       .  A
O873        C882   1.271       .  A
O874        C884   1.280       .  A
O875        C883   1.281       .  A
O876        C885   1.272       .  A
O877        C886   1.269       .  A
O878      Zn1267   2.092   1_545  S
O878        C885   1.283       .  A
O879       C1286   1.276       .  A
O880       C1287   1.274       .  A
O881        C887   1.276       .  A
C884        C962   1.495       .  S
C885        C892   1.474       .  S
C886       C1355   1.473       .  S
C886       O1279   1.276       .  A
C887       C1259   1.473       .  S
C887       O1280   1.274       .  A
C888        N889   1.369       .  A
C888        N893   1.355       .  A
N889        C890   1.367       .  A
C890        N891   1.369       .  A
C890       C1095   1.489       .  S
N891        C892   1.355       .  A
C892        N893   1.352       .  A
N894        C898   1.358       .  A
N894        C895   1.362       .  A
C895       C1096   1.397   1_554  A
C895       C1090   1.489       .  S
C896       C1095   1.397       .  A
C896       C1097   1.375       .  A
C896        H899   1.083       .  S
C897       C1096   1.375   1_554  A
C897        C898   1.372       .  A
C897        H900   1.081       .  S
N901        C905   1.348       .  A
N901        C902   1.354       .  A
N901        C948   1.429       .  S
C902        C903   1.390       .  A
C902        C937   1.486       .  S
C903        C904   1.371       .  A
C903        H906   1.082   1_554  S
C904        C905   1.375       .  A
C904        H907   1.078       .  S
N908        C912   1.357       .  A
N908        C909   1.359       .  A
N908        C992   1.450       .  S
C909        C910   1.378       .  A
C909        C933   1.467       .  S
C910        C911   1.364       .  A
C910        H913   1.083       .  S
C911        C912   1.378       .  A
C911        H914   1.075       .  S
Zn915       O920   2.034   1_455  S
Zn915       O924   2.074   1_455  S
Zn916       O921   2.050       .  S
Zn916      O1123   2.077       .  S
Zn916       O927   2.061       .  S
Zn917      O1119   1.964       .  S
Zn917       O928   2.029       .  S
Zn918      O1119   1.915       .  S
Zn918       O926   1.974       .  S
Zn918       O929   1.973       .  S
Zn918      O1130   1.956       .  S
O919      Zn1117   1.964       .  S
O919      Zn1118   1.915       .  S
O920        C932   1.282       .  A
O921        C933   1.280       .  A
O922        C934   1.272       .  A
O923      Zn1116   2.077   1_554  S
O923        C932   1.279       .  A
O924        C934   1.278       .  A
O925        C933   1.271       .  A
O926        C935   1.266       .  A
O928        C935   1.270       .  A
O929        C936   1.268       .  A
O930      Zn1118   1.956       .  S
O930        C937   1.266   1_556  A
O931        C937   1.280       .  A
C934        C995   1.470       .  S
C936        C940   1.471       .  S
C938        N939   1.356       .  A
C938        N943   1.367       .  A
C938        C987   1.458       .  S
N939        C940   1.351       .  A
C940        N941   1.360       .  A
N941        C942   1.365       .  A
C942        N943   1.356       .  A
C942        C945   1.490       .  S
N944        C948   1.359       .  A
N944        C945   1.362       .  A
N944        N951   1.429       .  S
C945        C946   1.396       .  A
C946        C947   1.370       .  A
C946        H949   1.083       .  S
C947        C948   1.370       .  A
C947        H950   1.082       .  S
N951        C955   1.378       .  A
N951        C952   1.358       .  A
C952       C1353   1.378       .  A
C952       C1384   1.463       .  S
C953       C1352   1.378       .  A
C953        C954   1.353       .  A
C953        H956   1.084       .  S
C954       C1355   1.384       .  A
C954        H957   1.084       .  S
C955       C1354   1.384       .  A
C955       C1286   1.473       .  S
N958        C962   1.373       .  A
N958        C959   1.363       .  A
N958        N988   1.424       .  S
C959        C960   1.383       .  A
C959        C986   1.468       .  S
C960        C961   1.361       .  A
C960        H963   1.084       .  S
C961        C962   1.380       .  A
C961        H964   1.083       .  S
Zn965      O1169   1.904       .  S
Zn965       O970   1.944       .  S
Zn965      O1574   1.955       .  S
Zn965      O1381   1.951       .  S
Zn966      O1169   1.952       .  S
Zn966      O1171   2.008       .  S
Zn966       O973   2.035       .  S
Zn967       O975   2.027       .  S
Zn967       O978   1.955   1_455  S
Zn968      O1176   2.038       .  S
Zn968       O979   2.019       .  S
Zn968      O1380   2.034       .  S
O969      Zn1165   1.904   1_554  S
O969      Zn1166   1.952       .  S
O970        C982   1.262       .  A
O971      Zn1166   2.008       .  S
O972        C984   1.273       .  A
O973        C982   1.274       .  A
O974      Zn1565   1.955   1_544  S
O974       C1384   1.267       .  A
O975        C983   1.272       .  A
O976      Zn1168   2.038   1_554  S
O976        C985   1.275       .  A
O977        C986   1.272       .  A
O978        C985   1.266       .  A
O979        C986   1.275       .  A
O980      Zn1368   2.034   1_545  S
O981      Zn1365   1.951   1_545  S
O981        C987   1.263       .  A
C983        C999   1.467       .  S
C984       C1352   1.463       .  S
C984       O1374   1.267       .  A
C985       C1262   1.473       .  S
N988        C992   1.362       .  A
N988        C989   1.363       .  A
C989        C990   1.391       .  A
C989        C997   1.490       .  S
C990        C991   1.371       .  A
C990        H993   1.083       .  S
C991        C992   1.378       .  A
C991        H994   1.075       .  S
C995        N996   1.357       .  A
N996        C997   1.370       .  A
C997        N998   1.365       .  A
N998        C999   1.368   1_655  A
N1001      C1005   1.359       .  A
N1001      C1002   1.352       .  A
N1001      C1042   1.446       .  S
C1002      C1003   1.380       .  A
C1002      C1034   1.468       .  S
C1003      C1004   1.369       .  A
C1003      H1006   1.083       .  S
C1004      C1005   1.380       .  A
C1004      H1007   1.078       .  S
C1005      C1135   1.459       .  S
N1008      C1012   1.375       .  A
N1008      C1009   1.358       .  A
N1008      N1094   1.423       .  S
C1009      C1010   1.378       .  A
C1009      C1036   1.453       .  S
C1010      C1011   1.358       .  A
C1010      H1013   1.083       .  S
C1011      C1012   1.384       .  A
C1011      H1014   1.082       .  S
C1012      C1132   1.494       .  S
Zn1015     O1019   1.952       .  S
Zn1015     O1020   2.049       .  S
Zn1015     O1024   2.028       .  S
Zn1015     O1031   1.993       .  S
Zn1016     O1019   1.952       .  S
Zn1016     O1021   2.033       .  S
Zn1016     O1023   2.013       .  S
Zn1016     O1027   2.010       .  S
Zn1017     O1019   1.897       .  S
Zn1017     O1022   1.978       .  S
Zn1017     O1025   1.943       .  S
Zn1017     O1028   1.970       .  S
Zn1018     O1019   1.927       .  S
Zn1018     O1026   2.037       .  S
Zn1018     O1029   1.991       .  S
Zn1018     O1030   1.999       .  S
O1020      C1032   1.274       .  A
O1021      C1033   1.274       .  A
O1022      C1034   1.270       .  A
O1023      C1032   1.276       .  A
O1024      C1034   1.275       .  A
O1025      C1033   1.264       .  A
O1026      C1035   1.272       .  A
O1027      C1036   1.270       .  A
O1028      C1035   1.267       .  A
O1029      C1036   1.273       .  A
O1030      C1037   1.269       .  A
O1031      C1037   1.271       .  A
C1032      C1088   1.471       .  S
C1033      C1105   1.452       .  S
C1035      C1047   1.463       .  S
C1037      C1112   1.466       .  S
N1038      C1042   1.374       .  A
N1038      N1051   1.423       .  S
C1039      C1040   1.393       .  A
C1039      C1049   1.477       .  S
C1040      H1043   1.084       .  S
C1041      C1042   1.372       .  A
C1041      H1044   1.082   1_556  S
C1045      N1046   1.356       .  A
C1045      N1050   1.371       .  A
C1045      C1082   1.465       .  S
N1046      C1047   1.347       .  A
C1047      N1048   1.354       .  A
N1048      C1049   1.357       .  A
C1049      N1050   1.365       .  A
N1051      C1055   1.357       .  A
N1051      C1052   1.365       .  A
C1052      C1053   1.397       .  A
C1052      C1083   1.502       .  S
C1053      C1054   1.361       .  A
C1053      H1056   1.084       .  S
C1054      C1055   1.369       .  A
C1054      H1057   1.082       .  S
C1055      C1182   1.450       .  S
N1058      C1062   1.353       .  A
N1058      C1059   1.361       .  A
N1058      C1098   1.440       .  S
C1059      C1460   1.381       .  A
C1059      C1487   1.473       .  S
C1060      C1459   1.381       .  A
C1060      C1061   1.368       .  A
C1060      H1063   1.084       .  S
C1061      C1462   1.383       .  A
C1061      H1064   1.080       .  S
C1062      C1461   1.383       .  A
C1062      C1585   1.473       .  S
Zn1065     O1069   1.959       .  S
Zn1065     O1070   2.024       .  S
Zn1065     O1074   2.091       .  S
Zn1065     O1081   2.037       .  S
Zn1066     O1069   1.916       .  S
Zn1066     O1071   1.959       .  S
Zn1066     O1073   2.003       .  S
Zn1066     O1077   2.031       .  S
Zn1067     O1069   1.981       .  S
Zn1067     O1072   2.019       .  S
Zn1067     O1075   2.117       .  S
Zn1067     O1478   2.092       .  S
Zn1068     O1469   1.932   1_545  S
Zn1068     O1076   1.964       .  S
Zn1068     O1079   2.035       .  S
Zn1068     O1080   2.037       .  S
O1069     Zn1468   1.932       .  S
O1070      C1082   1.280       .  A
O1071      C1083   1.270       .  A
O1072      C1084   1.278       .  A
O1073      C1082   1.271       .  A
O1074      C1084   1.280       .  A
O1075      C1083   1.281       .  A
O1076      C1085   1.272       .  A
O1077      C1086   1.270       .  A
O1078     Zn1467   2.092   1_545  S
O1078      C1085   1.283       .  A
O1079      C1486   1.276       .  A
O1080      C1487   1.274       .  A
O1081      C1087   1.276       .  A
C1084      C1162   1.495       .  S
C1085      C1092   1.474       .  S
C1086      C1555   1.473       .  S
C1086      O1479   1.276       .  A
C1087      C1459   1.473       .  S
C1087      O1480   1.274       .  A
C1088      N1089   1.369       .  A
C1088      N1093   1.355       .  A
N1089      C1090   1.367   1_556  A
C1090      N1091   1.369       .  A
N1091      C1092   1.355   1_554  A
C1092      N1093   1.352       .  A
N1094      C1098   1.358       .  A
N1094      C1095   1.362       .  A
C1096      H1099   1.083       .  S
C1097      C1098   1.372       .  A
C1097      H1100   1.081       .  S
N1101      C1105   1.348       .  A
N1101      C1102   1.354       .  A
N1101      C1148   1.429       .  S
C1102      C1103   1.390       .  A
C1102      C1137   1.486       .  S
C1103      C1104   1.371       .  A
C1103      H1106   1.082       .  S
C1104      C1105   1.375       .  A
C1104      H1107   1.078       .  S
N1108      C1112   1.357       .  A
N1108      C1109   1.359       .  A
N1108      C1192   1.450       .  S
C1109      C1110   1.378       .  A
C1109      C1133   1.467       .  S
C1110      C1111   1.364       .  A
C1110      H1113   1.083   1_556  S
C1111      C1112   1.378       .  A
C1111      H1114   1.075       .  S
Zn1115     O1120   2.034   1_455  S
Zn1115     O1124   2.074   1_455  S
Zn1116     O1121   2.050       .  S
Zn1116     O1127   2.061       .  S
Zn1117     O1128   2.029       .  S
Zn1118     O1126   1.974       .  S
Zn1118     O1129   1.973       .  S
O1120      C1132   1.282       .  A
O1121      C1133   1.280       .  A
O1122      C1134   1.272       .  A
O1123      C1132   1.279       .  A
O1124      C1134   1.278       .  A
O1125      C1133   1.271       .  A
O1126      C1135   1.266       .  A
O1128      C1135   1.270       .  A
O1129      C1136   1.268       .  A
O1130      C1137   1.266       .  A
O1131      C1137   1.280       .  A
C1134      C1195   1.470       .  S
C1136      C1140   1.471       .  S
C1138      N1139   1.356       .  A
C1138      N1143   1.367       .  A
C1138      C1187   1.458       .  S
N1139      C1140   1.351       .  A
C1140      N1141   1.360       .  A
N1141      C1142   1.365       .  A
C1142      N1143   1.356       .  A
C1142      C1145   1.490       .  S
N1144      C1148   1.359       .  A
N1144      C1145   1.362       .  A
N1144      N1151   1.429       .  S
C1145      C1146   1.396       .  A
C1146      C1147   1.370       .  A
C1146      H1149   1.083       .  S
C1147      C1148   1.370       .  A
C1147      H1150   1.082       .  S
N1151      C1155   1.378       .  A
N1151      C1152   1.358       .  A
C1152      C1553   1.378       .  A
C1152      C1584   1.463       .  S
C1153      C1552   1.378       .  A
C1153      C1154   1.353       .  A
C1153      H1156   1.084       .  S
C1154      C1555   1.384       .  A
C1154      H1157   1.084       .  S
C1155      C1554   1.384       .  A
C1155      C1486   1.473       .  S
N1158      C1162   1.373       .  A
N1158      C1159   1.363       .  A
N1158      N1188   1.424       .  S
C1159      C1160   1.383       .  A
C1159      C1186   1.468       .  S
C1160      C1161   1.361       .  A
C1160      H1163   1.084   1_556  S
C1161      C1162   1.380       .  A
C1161      H1164   1.083       .  S
Zn1165     O1170   1.944       .  S
Zn1165     O1374   1.955   1_556  S
Zn1165     O1581   1.951       .  S
Zn1166     O1173   2.035   1_554  S
Zn1167     O1175   2.027       .  S
Zn1167     O1178   1.955   1_455  S
Zn1168     O1179   2.019       .  S
Zn1168     O1580   2.034       .  S
O1170      C1182   1.262       .  A
O1172      C1184   1.273       .  A
O1173      C1182   1.274       .  A
O1174     Zn1365   1.955   1_545  S
O1174      C1584   1.267       .  A
O1175      C1183   1.272       .  A
O1176      C1185   1.275       .  A
O1177      C1186   1.272       .  A
O1178      C1185   1.266       .  A
O1179      C1186   1.275       .  A
O1180     Zn1568   2.034   1_545  S
O1181     Zn1565   1.951   1_545  S
O1181      C1187   1.263       .  A
C1183      C1199   1.467       .  S
C1184      C1552   1.463       .  S
C1184      O1574   1.267       .  A
C1185      C1462   1.473       .  S
N1188      C1192   1.362       .  A
N1188      C1189   1.363       .  A
C1189      C1190   1.391       .  A
C1189      C1197   1.490       .  S
C1190      C1191   1.371       .  A
C1190      H1193   1.083       .  S
C1191      C1192   1.378       .  A
C1191      H1194   1.075       .  S
C1195      N1196   1.357       .  A
N1196      C1197   1.370       .  A
C1197      N1198   1.365       .  A
N1198      C1199   1.368   1_655  A
N1201      C1205   1.359       .  A
N1201      C1202   1.352       .  A
N1201      C1242   1.446       .  S
C1202      C1203   1.380       .  A
C1202      C1234   1.468       .  S
C1203      C1204   1.369       .  A
C1203      H1206   1.083       .  S
C1204      C1205   1.380       .  A
C1204      H1207   1.078       .  S
C1205      C1335   1.459       .  S
N1208      C1212   1.375       .  A
N1208      C1209   1.358       .  A
N1208      N1294   1.423       .  S
C1209      C1210   1.378       .  A
C1209      C1236   1.453       .  S
C1210      C1211   1.358       .  A
C1210      H1213   1.083       .  S
C1211      C1212   1.384       .  A
C1211      H1214   1.082       .  S
C1212      C1332   1.494       .  S
Zn1215     O1219   1.952       .  S
Zn1215     O1220   2.049       .  S
Zn1215     O1224   2.028       .  S
Zn1215     O1231   1.993       .  S
Zn1216     O1219   1.952       .  S
Zn1216     O1221   2.033       .  S
Zn1216     O1223   2.013       .  S
Zn1216     O1227   2.010       .  S
Zn1217     O1219   1.897       .  S
Zn1217     O1222   1.978       .  S
Zn1217     O1225   1.943       .  S
Zn1217     O1228   1.970       .  S
Zn1218     O1219   1.927       .  S
Zn1218     O1226   2.037       .  S
Zn1218     O1229   1.991       .  S
Zn1218     O1230   1.999       .  S
O1220      C1232   1.274       .  A
O1221      C1233   1.274       .  A
O1222      C1234   1.270       .  A
O1223      C1232   1.276       .  A
O1224      C1234   1.275       .  A
O1225      C1233   1.264       .  A
O1226      C1235   1.272       .  A
O1227      C1236   1.270       .  A
O1228      C1235   1.267       .  A
O1229      C1236   1.273       .  A
O1230      C1237   1.269       .  A
O1231      C1237   1.271       .  A
C1232      C1288   1.471       .  S
C1233      C1305   1.452       .  S
C1235      C1247   1.463       .  S
C1237      C1312   1.466       .  S
N1238      C1242   1.374       .  A
N1238      C1439   1.360       .  A
N1238      N1251   1.423       .  S
C1239      N1438   1.360       .  A
C1239      C1240   1.393   1_556  A
C1239      C1249   1.477   1_556  S
C1240      C1441   1.372   1_554  A
C1240      H1243   1.084       .  S
C1241      C1440   1.372       .  A
C1241      C1242   1.372       .  A
C1241      H1244   1.082       .  S
C1245      N1246   1.356       .  A
C1245      N1250   1.371       .  A
C1245      C1282   1.465       .  S
N1246      C1247   1.347       .  A
C1247      N1248   1.354       .  A
N1248      C1249   1.357       .  A
C1249      N1250   1.365       .  A
N1251      C1255   1.357       .  A
N1251      C1252   1.365       .  A
C1252      C1253   1.397       .  A
C1252      C1283   1.502       .  S
C1253      C1254   1.361       .  A
C1253      H1256   1.084       .  S
C1254      C1255   1.369       .  A
C1254      H1257   1.082       .  S
C1255      C1382   1.450       .  S
N1258      C1262   1.353       .  A
N1258      C1259   1.361       .  A
N1258      C1298   1.440       .  S
C1260      C1261   1.368       .  A
C1260      H1263   1.084       .  S
C1261      H1264   1.079       .  S
Zn1265     O1269   1.959       .  S
Zn1265     O1270   2.024       .  S
Zn1265     O1274   2.092       .  S
Zn1265     O1281   2.037       .  S
Zn1266     O1269   1.916       .  S
Zn1266     O1271   1.959       .  S
Zn1266     O1273   2.003       .  S
Zn1266     O1277   2.031   1_565  S
Zn1267     O1269   1.981       .  S
Zn1267     O1272   2.019       .  S
Zn1267     O1275   2.117       .  S
Zn1268     O1276   1.964       .  S
Zn1268     O1279   2.035       .  S
Zn1268     O1280   2.037       .  S
O1270      C1282   1.280       .  A
O1271      C1283   1.270       .  A
O1272      C1284   1.278       .  A
O1273      C1282   1.271       .  A
O1274      C1284   1.280       .  A
O1275      C1283   1.281       .  A
O1276      C1285   1.272       .  A
O1277      C1286   1.269       .  A
O1278      C1285   1.283       .  A
O1281      C1287   1.276   1_565  A
C1284      C1362   1.495       .  S
C1285      C1292   1.474       .  S
C1288      N1289   1.369       .  A
C1288      N1293   1.355       .  A
N1289      C1290   1.367       .  A
C1290      N1291   1.369       .  A
C1290      C1495   1.489       .  S
N1291      C1292   1.355       .  A
C1292      N1293   1.352       .  A
N1294      C1298   1.358       .  A
N1294      C1295   1.362       .  A
C1295      C1496   1.397   1_554  A
C1295      C1490   1.489       .  S
C1296      C1495   1.397       .  A
C1296      C1497   1.375       .  A
C1296      H1299   1.083       .  S
C1297      C1496   1.375   1_554  A
C1297      C1298   1.372       .  A
C1297      H1300   1.081       .  S
N1301      C1305   1.348       .  A
N1301      C1302   1.354       .  A
N1301      C1348   1.429       .  S
C1302      C1303   1.390       .  A
C1302      C1337   1.486       .  S
C1303      C1304   1.371       .  A
C1303      H1306   1.082   1_554  S
C1304      C1305   1.375       .  A
C1304      H1307   1.078       .  S
N1308      C1312   1.357       .  A
N1308      C1309   1.359       .  A
N1308      C1392   1.450       .  S
C1309      C1310   1.378       .  A
C1309      C1333   1.467       .  S
C1310      C1311   1.364       .  A
C1310      H1313   1.083       .  S
C1311      C1312   1.378       .  A
C1311      H1314   1.075       .  S
Zn1315     O1320   2.034   1_455  S
Zn1315     O1324   2.074   1_455  S
Zn1316     O1321   2.050       .  S
Zn1316     O1523   2.077       .  S
Zn1316     O1327   2.061       .  S
Zn1317     O1519   1.964       .  S
Zn1317     O1328   2.029       .  S
Zn1318     O1519   1.915       .  S
Zn1318     O1326   1.974       .  S
Zn1318     O1329   1.973       .  S
Zn1318     O1530   1.956       .  S
O1319     Zn1517   1.964       .  S
O1319     Zn1518   1.915       .  S
O1320      C1332   1.282       .  A
O1321      C1333   1.280       .  A
O1322      C1334   1.272       .  A
O1323     Zn1516   2.077   1_554  S
O1323      C1332   1.279       .  A
O1324      C1334   1.278       .  A
O1325      C1333   1.271       .  A
O1326      C1335   1.266       .  A
O1328      C1335   1.270       .  A
O1329      C1336   1.268       .  A
O1330     Zn1518   1.956       .  S
O1330      C1337   1.266   1_556  A
O1331      C1337   1.280       .  A
C1334      C1395   1.470       .  S
C1336      C1340   1.471       .  S
C1338      N1339   1.356       .  A
C1338      N1343   1.367       .  A
C1338      C1387   1.458       .  S
N1339      C1340   1.351       .  A
C1340      N1341   1.360       .  A
N1341      C1342   1.365       .  A
C1342      N1343   1.356       .  A
C1342      C1345   1.490       .  S
N1344      C1348   1.359       .  A
N1344      C1345   1.362       .  A
N1344      N1351   1.429       .  S
C1345      C1346   1.396       .  A
C1346      C1347   1.370       .  A
C1346      H1349   1.083       .  S
C1347      C1348   1.370       .  A
C1347      H1350   1.082       .  S
N1351      C1355   1.378       .  A
N1351      C1352   1.358       .  A
C1353      C1354   1.353       .  A
C1353      H1356   1.084       .  S
C1354      H1357   1.084       .  S
N1358      C1362   1.373       .  A
N1358      C1359   1.363       .  A
N1358      N1388   1.424       .  S
C1359      C1360   1.383       .  A
C1359      C1386   1.468       .  S
C1360      C1361   1.361       .  A
C1360      H1363   1.084       .  S
C1361      C1362   1.380       .  A
C1361      H1364   1.083       .  S
Zn1365     O1569   1.904       .  S
Zn1365     O1370   1.944       .  S
Zn1366     O1569   1.952       .  S
Zn1366     O1571   2.008       .  S
Zn1366     O1373   2.035       .  S
Zn1367     O1375   2.027       .  S
Zn1367     O1378   1.955   1_465  S
Zn1368     O1576   2.038   1_565  S
Zn1368     O1379   2.019       .  S
O1369     Zn1565   1.904   1_554  S
O1369     Zn1566   1.952       .  S
O1370      C1382   1.262       .  A
O1371     Zn1566   2.008       .  S
O1372      C1384   1.273       .  A
O1373      C1382   1.274       .  A
O1375      C1383   1.272       .  A
O1376     Zn1568   2.038   1_544  S
O1376      C1385   1.275       .  A
O1377      C1386   1.272       .  A
O1378      C1385   1.266       .  A
O1379      C1386   1.275       .  A
O1381      C1387   1.263       .  A
C1383      C1399   1.467       .  S
N1388      C1392   1.362       .  A
N1388      C1389   1.363       .  A
C1389      C1390   1.391       .  A
C1389      C1397   1.490       .  S
C1390      C1391   1.371       .  A
C1390      H1393   1.083       .  S
C1391      C1392   1.378       .  A
C1391      H1394   1.075       .  S
C1395      N1396   1.357       .  A
N1396      C1397   1.370       .  A
C1397      N1398   1.365       .  A
N1398      C1399   1.368   1_655  A
N1401      C1405   1.359       .  A
N1401      C1402   1.352       .  A
N1401      C1442   1.446       .  S
C1402      C1403   1.380       .  A
C1402      C1434   1.468       .  S
C1403      C1404   1.369       .  A
C1403      H1406   1.083       .  S
C1404      C1405   1.380       .  A
C1404      H1407   1.078       .  S
C1405      C1535   1.459       .  S
N1408      C1412   1.375       .  A
N1408      C1409   1.358       .  A
N1408      N1494   1.423       .  S
C1409      C1410   1.378       .  A
C1409      C1436   1.453       .  S
C1410      C1411   1.358       .  A
C1410      H1413   1.083       .  S
C1411      C1412   1.384       .  A
C1411      H1414   1.082       .  S
C1412      C1532   1.494       .  S
Zn1415     O1419   1.952       .  S
Zn1415     O1420   2.049       .  S
Zn1415     O1424   2.028       .  S
Zn1415     O1431   1.993       .  S
Zn1416     O1419   1.952       .  S
Zn1416     O1421   2.033       .  S
Zn1416     O1423   2.013       .  S
Zn1416     O1427   2.010       .  S
Zn1417     O1419   1.897       .  S
Zn1417     O1422   1.978       .  S
Zn1417     O1425   1.943       .  S
Zn1417     O1428   1.970       .  S
Zn1418     O1419   1.927       .  S
Zn1418     O1426   2.037       .  S
Zn1418     O1429   1.991       .  S
Zn1418     O1430   1.999       .  S
O1420      C1432   1.274       .  A
O1421      C1433   1.274       .  A
O1422      C1434   1.270       .  A
O1423      C1432   1.276       .  A
O1424      C1434   1.275       .  A
O1425      C1433   1.264       .  A
O1426      C1435   1.272       .  A
O1427      C1436   1.270       .  A
O1428      C1435   1.267       .  A
O1429      C1436   1.273       .  A
O1430      C1437   1.269       .  A
O1431      C1437   1.271       .  A
C1432      C1488   1.471       .  S
C1433      C1505   1.452       .  S
C1435      C1447   1.463       .  S
C1437      C1512   1.466       .  S
N1438      C1442   1.374       .  A
N1438      N1451   1.423       .  S
C1439      C1440   1.393       .  A
C1439      C1449   1.477       .  S
C1440      H1443   1.084       .  S
C1441      C1442   1.372       .  A
C1441      H1444   1.082   1_556  S
C1445      N1446   1.356       .  A
C1445      N1450   1.371       .  A
C1445      C1482   1.465       .  S
N1446      C1447   1.347       .  A
C1447      N1448   1.354       .  A
N1448      C1449   1.357       .  A
C1449      N1450   1.365       .  A
N1451      C1455   1.357       .  A
N1451      C1452   1.365       .  A
C1452      C1453   1.397       .  A
C1452      C1483   1.502       .  S
C1453      C1454   1.361       .  A
C1453      H1456   1.084       .  S
C1454      C1455   1.369       .  A
C1454      H1457   1.082       .  S
C1455      C1582   1.450       .  S
N1458      C1462   1.353       .  A
N1458      C1459   1.361       .  A
N1458      C1498   1.440       .  S
C1460      C1461   1.368       .  A
C1460      H1463   1.084       .  S
C1461      H1464   1.079       .  S
Zn1465     O1469   1.959       .  S
Zn1465     O1470   2.024       .  S
Zn1465     O1474   2.091       .  S
Zn1465     O1481   2.037       .  S
Zn1466     O1469   1.916       .  S
Zn1466     O1471   1.959       .  S
Zn1466     O1473   2.003       .  S
Zn1466     O1477   2.031   1_565  S
Zn1467     O1469   1.981       .  S
Zn1467     O1472   2.019       .  S
Zn1467     O1475   2.117       .  S
Zn1468     O1476   1.964       .  S
Zn1468     O1479   2.035       .  S
Zn1468     O1480   2.037       .  S
O1470      C1482   1.280       .  A
O1471      C1483   1.270       .  A
O1472      C1484   1.278       .  A
O1473      C1482   1.271       .  A
O1474      C1484   1.280       .  A
O1475      C1483   1.281       .  A
O1476      C1485   1.272       .  A
O1477      C1486   1.270       .  A
O1478      C1485   1.283       .  A
O1481      C1487   1.276   1_565  A
C1484      C1562   1.495       .  S
C1485      C1492   1.474       .  S
C1488      N1489   1.369       .  A
C1488      N1493   1.355       .  A
N1489      C1490   1.367   1_556  A
C1490      N1491   1.369       .  A
N1491      C1492   1.355   1_554  A
C1492      N1493   1.352       .  A
N1494      C1498   1.358       .  A
N1494      C1495   1.362       .  A
C1496      H1499   1.083       .  S
C1497      C1498   1.372       .  A
C1497      H1500   1.081       .  S
N1501      C1505   1.348       .  A
N1501      C1502   1.354       .  A
N1501      C1548   1.429       .  S
C1502      C1503   1.390       .  A
C1502      C1537   1.486       .  S
C1503      C1504   1.371       .  A
C1503      H1506   1.082       .  S
C1504      C1505   1.375       .  A
C1504      H1507   1.078       .  S
N1508      C1512   1.357       .  A
N1508      C1509   1.359       .  A
N1508      C1592   1.450       .  S
C1509      C1510   1.378       .  A
C1509      C1533   1.467       .  S
C1510      C1511   1.364       .  A
C1510      H1513   1.083   1_556  S
C1511      C1512   1.378       .  A
C1511      H1514   1.075       .  S
Zn1515     O1520   2.034   1_455  S
Zn1515     O1524   2.074   1_455  S
Zn1516     O1521   2.050       .  S
Zn1516     O1527   2.061       .  S
Zn1517     O1528   2.029       .  S
Zn1518     O1526   1.974       .  S
Zn1518     O1529   1.973       .  S
O1520      C1532   1.282       .  A
O1521      C1533   1.280       .  A
O1522      C1534   1.272       .  A
O1523      C1532   1.279       .  A
O1524      C1534   1.278       .  A
O1525      C1533   1.271       .  A
O1526      C1535   1.266       .  A
O1528      C1535   1.270       .  A
O1529      C1536   1.268       .  A
O1530      C1537   1.266       .  A
O1531      C1537   1.280       .  A
C1534      C1595   1.470       .  S
C1536      C1540   1.471       .  S
C1538      N1539   1.356       .  A
C1538      N1543   1.367       .  A
C1538      C1587   1.458       .  S
N1539      C1540   1.351       .  A
C1540      N1541   1.360       .  A
N1541      C1542   1.365       .  A
C1542      N1543   1.356       .  A
C1542      C1545   1.490       .  S
N1544      C1548   1.359       .  A
N1544      C1545   1.362       .  A
N1544      N1551   1.429       .  S
C1545      C1546   1.396       .  A
C1546      C1547   1.370       .  A
C1546      H1549   1.083       .  S
C1547      C1548   1.370       .  A
C1547      H1550   1.082       .  S
N1551      C1555   1.378       .  A
N1551      C1552   1.358       .  A
C1553      C1554   1.353       .  A
C1553      H1556   1.084       .  S
C1554      H1557   1.084       .  S
N1558      C1562   1.373       .  A
N1558      C1559   1.363       .  A
N1558      N1588   1.424       .  S
C1559      C1560   1.383       .  A
C1559      C1586   1.468       .  S
C1560      C1561   1.361       .  A
C1560      H1563   1.084   1_556  S
C1561      C1562   1.380       .  A
C1561      H1564   1.083       .  S
Zn1565     O1570   1.944       .  S
Zn1566     O1573   2.035   1_554  S
Zn1567     O1575   2.027       .  S
Zn1567     O1578   1.955   1_465  S
Zn1568     O1579   2.019       .  S
O1570      C1582   1.262       .  A
O1572      C1584   1.273       .  A
O1573      C1582   1.274       .  A
O1575      C1583   1.272       .  A
O1576      C1585   1.275       .  A
O1577      C1586   1.272       .  A
O1578      C1585   1.266       .  A
O1579      C1586   1.275       .  A
O1581      C1587   1.263       .  A
C1583      C1599   1.467       .  S
N1588      C1592   1.362       .  A
N1588      C1589   1.363       .  A
C1589      C1590   1.391       .  A
C1589      C1597   1.490       .  S
C1590      C1591   1.371       .  A
C1590      H1593   1.083       .  S
C1591      C1592   1.378       .  A
C1591      H1594   1.075       .  S
C1595      N1596   1.357       .  A
N1596      C1597   1.370       .  A
C1597      N1598   1.365       .  A
N1598      C1599   1.368   1_655  A
