geometry optimzed in LAMMPS
_audit_creation_date              2020-12-01 
_audit_creation_method            'lammps2cif' 
_symmetry_space_group_name_H-M    'P1' 
_symmetry_Int_Tables_number       1 
_symmetry_cell_setting            triclinic 
loop_ 
_symmetry_equiv_pos_as_xyz 
  x,y,z 
_cell_length_a                    58.38458721 
_cell_length_b                    58.381561752496495 
_cell_length_c                    44.556893352638106 
_cell_angle_alpha                 89.90800911465999 
_cell_angle_beta                  89.88412032156197 
_cell_angle_gamma                 92.12813210138445 
loop_ 
_atom_site_label 
_atom_site_type_symbol 
_atom_site_fract_x 
_atom_site_fract_y 
_atom_site_fract_z 
_atom_site_charge 
N1          N  0.45337738  0.96900797  0.15012378    -0.27900
N2          N  0.46351636  0.98094963  0.17188295    -0.35700
C3          C  0.48608664  0.97754599  0.17128960     0.00500
C4          C  0.49067320  0.96280686  0.14810335     0.06500
C5          C  0.46950021  0.95742918  0.13530326    -0.06600
H6          H  0.49797963  0.98351278  0.18842073     0.07200
H7          H  0.46587858  0.94476369  0.11809121     0.08400
Cu8        Cu  0.44692660  0.99685052  0.20657698     0.44200
Cu9        Cu  0.41771198  0.96717077  0.14471359     0.42000
Cu10       Cu  0.38694095  0.99156354  0.20869715     0.43900
N11         N  0.42846591  0.00482769  0.24441661    -0.35300
N12         N  0.40589344  0.00285508  0.24523237    -0.29500
C13         C  0.39876066  0.00545886  0.27367115    -0.05600
C14         C  0.41786630  0.00894206  0.29168681     0.06600
C15         C  0.43641451  0.00857737  0.27234329     0.00400
H16         H  0.38117630  0.00287896  0.28099528     0.08000
H17         H  0.45435723  0.00894362  0.27840182     0.07100
N18         N  0.37132540  0.97762264  0.17099748    -0.36700
N19         N  0.38200201  0.96910881  0.14749653    -0.28900
C20         C  0.36613148  0.96226975  0.12707380    -0.04100
C21         C  0.34462882  0.96633304  0.13871363     0.04500
C22         C  0.34862162  0.97617324  0.16639339     0.02600
H23         H  0.36993054  0.95483334  0.10548670     0.07700
H24         H  0.33592338  0.98220722  0.18192441     0.06500
N25         N  0.45450954  0.95817937  0.46115900    -0.27900
N26         N  0.46514803  0.97038902  0.43989108    -0.35700
C27         C  0.48746134  0.96563519  0.43958369     0.00500
C28         C  0.49150734  0.94965726  0.46157335     0.06500
C29         C  0.47014120  0.94503317  0.47465093    -0.06600
H30         H  0.49949137  0.97171918  0.42259137     0.07200
H31         H  0.46588639  0.93187914  0.99101586     0.08400
Cu32       Cu  0.44935921  0.98884878  0.40661688     0.44200
Cu33       Cu  0.41854277  0.95867858  0.46801061     0.42000
Cu34       Cu  0.38883847  0.98706627  0.40733536     0.43900
N35         N  0.43030154  0.99973704  0.37052954    -0.35300
N36         N  0.40768501  0.99892332  0.37094959    -0.29500
C37         C  0.39984437  0.00377928  0.34344546    -0.05600
C38         C  0.41845480  0.00764332  0.32464488     0.06600
C39         C  0.43754006  0.00505847  0.34259707     0.00400
H40         H  0.38195395  0.00276684  0.33714347     0.08000
H41         H  0.45525344  0.00516297  0.33540497     0.07100
N42         N  0.37239926  0.97376773  0.44488479    -0.36700
N43         N  0.38271782  0.96369164  0.46748426    -0.28900
C44         C  0.36642729  0.95781648  0.98995886    -0.04100
C45         C  0.34489208  0.96365288  0.97959827     0.04500
C46         C  0.34984675  0.97471823  0.45063888     0.02600
H47         H  0.37040172  0.95115950  0.01193875     0.07700
H48         H  0.33763026  0.98187038  0.43537391     0.06500
N49         N  0.54960582  0.94689249  0.14660161    -0.27900
N50         N  0.54087815  0.93307310  0.16757621    -0.35700
C51         C  0.51799489  0.93444394  0.16779426     0.00500
C52         C  0.51171490  0.94989784  0.14610374     0.06500
C53         C  0.53226502  0.95765828  0.13328129    -0.06600
H54         H  0.50701895  0.92719841  0.18524921     0.07200
H55         H  0.53459989  0.97185997  0.11780966     0.08400
Cu56       Cu  0.55946537  0.91868452  0.20176410     0.44200
Cu57       Cu  0.58489346  0.95340927  0.14121611     0.42000
Cu58       Cu  0.61804909  0.93620921  0.20597401     0.43900
N59         N  0.57933871  0.91265536  0.23910425    -0.35300
N60         N  0.60119244  0.91919392  0.24043733    -0.29500
C61         C  0.60908065  0.91540840  0.26819018    -0.05600
C62         C  0.59119323  0.90634024  0.28535594     0.06600
C63         C  0.57257290  0.90474790  0.26620301     0.00400
H64         H  0.62610834  0.92047140  0.27579015     0.08000
H65         H  0.55509608  0.89972811  0.27199760     0.07100
N66         N  0.63229506  0.95092122  0.16800480    -0.36700
N67         N  0.62069918  0.95630013  0.14366971    -0.28900
C68         C  0.63581295  0.96204183  0.12174673    -0.04100
C69         C  0.65777005  0.96061681  0.13325280     0.04500
C70         C  0.65484595  0.95344881  0.16250490     0.02600
H71         H  0.63122661  0.96594360  0.09883682     0.07700
H72         H  0.66814252  0.94872069  0.17796466     0.06500
N73         N  0.54975974  0.93030769  0.46216909    -0.27900
N74         N  0.54071874  0.91873822  0.43928483    -0.35700
C75         C  0.51799577  0.92154697  0.43872175     0.00500
C76         C  0.51202127  0.93559930  0.46216929     0.06500
C77         C  0.53271672  0.94103435  0.47641324    -0.06600
H78         H  0.50706219  0.91630682  0.42019187     0.07200
H79         H  0.53482966  0.95138417  0.99274052     0.08400
Cu80       Cu  0.55905569  0.90598738  0.40348314     0.44200
Cu81       Cu  0.58549123  0.93417047  0.46923935     0.42000
Cu82       Cu  0.61830194  0.92025992  0.40289614     0.43900
N83         N  0.57906930  0.90340532  0.36522897    -0.35300
N84         N  0.60117368  0.90899247  0.36531230    -0.29500
C85         C  0.60915631  0.90915382  0.33707764    -0.05600
C86         C  0.59111489  0.90363330  0.31811924     0.06600
C87         C  0.57227283  0.89995370  0.33669430     0.00400
H88         H  0.62638415  0.91469944  0.33075277     0.08000
H89         H  0.55465162  0.89693157  0.32986456     0.07100
N90         N  0.63302734  0.93063170  0.44254991    -0.36700
N91         N  0.62168463  0.93546569  0.46732461    -0.28900
C92         C  0.63568595  0.93879175  0.98712047    -0.04100
C93         C  0.65766648  0.93754608  0.97513047     0.04500
C94         C  0.65564620  0.93260915  0.44756650     0.02600
H95         H  0.63129367  0.94322666  0.00993095     0.07700
H96         H  0.66862057  0.92986003  0.43072253     0.06500
C97         C  0.08965044  0.79093928  0.05618254     0.85900
C98         C  0.08545047  0.77449479  0.08343263    -0.54300
C99         C  0.06440233  0.76343649  0.08321329     0.08800
C100        C  0.04947667  0.76996946  0.05621835     0.19800
C101        C  0.08557000  0.77450237  0.02925083    -0.55100
C102        C  0.06437685  0.76369263  0.02913907     0.08900
C103        C  0.06934716  0.80702883  0.05651693    -0.54600
C104        C  0.04839512  0.79630872  0.05633067     0.09500
H105        H  0.09821536  0.77052039  0.10009341     0.14000
H106        H  0.03238252  0.76110600  0.05613422    -0.00200
H107        H  0.09912936  0.76963158  0.01410102     0.14300
H108        H  0.07146208  0.82560293  0.05634809     0.14100
C109        C  0.16231989  0.86367635  0.06090940     0.85900
C110        C  0.17806410  0.86774291  0.03285500    -0.54300
C111        C  0.19024376  0.88819098  0.03342792     0.08800
C112        C  0.18529367  0.90234113  0.06124744     0.19800
C113        C  0.17983707  0.86625744  0.08711845    -0.55100
C114        C  0.19149543  0.88693069  0.08766685     0.08900
C115        C  0.14723053  0.88495591  0.06234951    -0.54600
C116        C  0.15891631  0.90556258  0.06261600     0.09500
H117        H  0.18050240  0.85506479  0.01548238     0.14000
H118        H  0.19683637  0.91712320  0.06052612    -0.00200
H119        H  0.18480846  0.85223554  0.10136310     0.14300
H120        H  0.12862393  0.88365424  0.06277033     0.14100
C121        C  0.25355883  0.95466216  0.04312421    -0.03100
C122        C  0.25196934  0.95471485  0.08425714    -0.03100
C123        C  0.99807270  0.70307998  0.04072488    -0.03100
C124        C  0.99696109  0.70307788  0.08127703    -0.03100
C125        C  0.84835276  0.87635896  0.05157704     0.85900
C126        C  0.82949989  0.87602951  0.07704704    -0.54300
C127        C  0.81856466  0.89618960  0.08048638     0.08800
C128        C  0.82833461  0.91402429  0.05850890     0.19800
C129        C  0.83418343  0.88331221  0.02335057    -0.55100
C130        C  0.82387123  0.90403284  0.02574217     0.08900
C131        C  0.86470542  0.89764127  0.05743422    -0.54600
C132        C  0.85378474  0.91756367  0.06108165     0.09500
H133        H  0.82453707  0.86070281  0.08958351     0.14000
H134        H  0.82158831  0.92922781  0.06758679    -0.00200
H135        H  0.82825865  0.87100283  0.00667145     0.14300
H136        H  0.88324200  0.89712329  0.05592688     0.14100
C137        C  0.91550542  0.80345415  0.05578773     0.85900
C138        C  0.91959087  0.78758733  0.02808650    -0.54300
C139        C  0.94040222  0.77744280  0.02883282     0.08800
C140        C  0.95459933  0.78412865  0.05618329     0.19800
C141        C  0.91825710  0.78623169  0.08233788    -0.55100
C142        C  0.93903640  0.77612563  0.08239483     0.08900
C143        C  0.93671241  0.82031436  0.05675965    -0.54600
C144        C  0.95709409  0.81005642  0.05699175     0.09500
H145        H  0.90646317  0.78247760  0.01200215     0.14000
H146        H  0.97173167  0.77682261  0.05569262    -0.00200
H147        H  0.90476587  0.78152489  0.09820321     0.14300
H148        H  0.93553739  0.83883648  0.05629201     0.14100
C149        C  0.74860953  0.95928121  0.03180282    -0.03100
C150        C  0.74878204  0.95672546  0.07231658    -0.03100
C151        C  0.09077516  0.11631370  0.06177417     0.85900
C152        C  0.09093245  0.13443187  0.03607012    -0.54300
C153        C  0.07199213  0.14745331  0.03574573     0.08800
C154        C  0.05480928  0.14107697  0.06111995     0.19800
C155        C  0.08806815  0.13174567  0.09008726    -0.55100
C156        C  0.06900081  0.14469073  0.08932187     0.08900
C157        C  0.06769294  0.10241500  0.05898070    -0.54600
C158        C  0.04873278  0.11527984  0.05840479     0.09500
H159        H  0.10501963  0.13757563  0.02060392     0.14000
H160        H  0.03977859  0.15167525  0.06228915    -0.00200
H161        H  0.10126684  0.13428961  0.10699833     0.14300
H162        H  0.06660085  0.08384295  0.05746737     0.14100
C163        C  0.15755851  0.04241239  0.06787435     0.85900
C164        C  0.17426900  0.03912197  0.09511818    -0.54300
C165        C  0.18412668  0.01818249  0.09567281     0.08800
C166        C  0.17582812  0.00343293  0.06881726     0.19800
C167        C  0.17397663  0.03846615  0.04039417    -0.55100
C168        C  0.18424421  0.01766600  0.04058600     0.08900
C169        C  0.14024939  0.02134495  0.06805959    -0.54600
C170        C  0.15018015  0.00075755  0.06839202     0.09500
H171        H  0.17846544  0.05239837  0.11137834     0.14000
H172        H  0.18182281  0.98628100  0.07067459    -0.00200
H173        H  0.18078011  0.05253948  0.02673445     0.14300
H174        H  0.12178284  0.02282180  0.06704962     0.14100
C175        C  0.83933869  0.05328017  0.04198494     0.85900
C176        C  0.82036370  0.05093795  0.01727911    -0.54300
C177        C  0.80932698  0.02982134  0.01684149     0.08800
C178        C  0.81821658  0.01359057  0.04074462     0.19800
C179        C  0.82523209  0.04729777  0.07097354    -0.55100
C180        C  0.81424296  0.02625757  0.06969738     0.08900
C181        C  0.85519579  0.03263492  0.03789209    -0.54600
C182        C  0.84420746  0.01163959  0.03765743     0.09500
H183        H  0.81442338  0.06502104  0.00389651     0.14000
H184        H  0.80888909  0.99741174  0.04082622    -0.00200
H185        H  0.82307552  0.05897830  0.08959495     0.14300
H186        H  0.87377250  0.03451138  0.03810263     0.14100
C187        C  0.91267227  0.12521805  0.04997320     0.85900
C188        C  0.91842274  0.13908778  0.07915826    -0.54300
C189        C  0.94014988  0.14861722  0.07919439     0.08800
C190        C  0.95315985  0.14426544  0.05037488     0.19800
C191        C  0.91673570  0.14408531  0.02511800    -0.55100
C192        C  0.93831516  0.15433678  0.02601837     0.08900
C193        C  0.93244325  0.10835422  0.04592554    -0.54600
C194        C  0.95382014  0.11825580  0.04646187     0.09500
H195        H  0.90628156  0.14201414  0.09708415     0.14000
H196        H  0.96958229  0.15272226  0.05101243    -0.00200
H197        H  0.90342274  0.15038836  0.01068691     0.14300
H198        H  0.92959920  0.08991358  0.04417662     0.14100
C199        C  0.01141540  0.21329698  0.03788461    -0.03100
C200        C  0.01090743  0.21247402  0.07842583    -0.03100
N201        N  0.00908196  0.40931578  0.16032199    -0.27900
N202        N  0.02293694  0.42009302  0.17956340    -0.35700
C203        C  0.01897310  0.44260784  0.17903034     0.00500
C204        C  0.00176094  0.44636460  0.15864002     0.06500
C205        C  0.99566587  0.42485949  0.14743085    -0.06600
H206        H  0.02629095  0.45494981  0.19473120     0.07200
H207        H  0.98141428  0.42061977  0.13272495     0.08400
Cu208      Cu  0.04206986  0.40403362  0.21187891     0.44200
Cu209      Cu  0.00702405  0.37356548  0.15560071     0.42000
Cu210      Cu  0.03685571  0.34313336  0.21382553     0.43900
N211        N  0.05279709  0.38489123  0.24798829    -0.35300
N212        N  0.05091864  0.36228947  0.24848368    -0.29500
C213        C  0.05568803  0.35480311  0.27618993    -0.05600
C214        C  0.06053320  0.37363691  0.29418870     0.06600
C215        C  0.05866848  0.39245573  0.27552478     0.00400
H216        H  0.05364290  0.33711677  0.28328846     0.08000
H217        H  0.05941015  0.41030477  0.28206138     0.07100
N218        N  0.02001159  0.32703651  0.17861041    -0.36700
N219        N  0.00926618  0.33781057  0.15695898    -0.28900
C220        C  0.00198156  0.32219388  0.13647940    -0.04100
C221        C  0.00846095  0.30069246  0.14590253     0.04500
C222        C  0.01971319  0.30447714  0.17271629     0.02600
H223        H  0.99342007  0.32628605  0.11575286     0.07700
H224        H  0.02832330  0.29191844  0.18605561     0.06500
N225        N  0.01037068  0.41018075  0.46006323    -0.27900
N226        N  0.02486125  0.42066541  0.44119082    -0.35700
C227        C  0.02112740  0.44325569  0.44109088     0.00500
C228        C  0.00352100  0.44750994  0.46080886     0.06500
C229        C  0.99684156  0.42607461  0.47207866    -0.06600
H230        H  0.02903402  0.45536649  0.42545933     0.07200
H231        H  0.98149839  0.42187846  0.98460019     0.08400
Cu232      Cu  0.04498748  0.40431983  0.41003420     0.44200
Cu233      Cu  0.00773818  0.37425733  0.46564506     0.42000
Cu234      Cu  0.03827444  0.34405260  0.40809152     0.43900
N235        N  0.05550334  0.38511607  0.37380095    -0.35300
N236        N  0.05303880  0.36256180  0.37342467    -0.29500
C237        C  0.05670241  0.35494054  0.34550265    -0.05600
C238        C  0.06138553  0.37365545  0.32717164     0.06600
C239        C  0.06069271  0.39253757  0.34591051     0.00400
H240        H  0.05358675  0.33736485  0.33851654     0.08000
H241        H  0.06139575  0.41036814  0.33921474     0.07100
N242        N  0.01972669  0.32780936  0.44164969    -0.36700
N243        N  0.00892381  0.33822171  0.46354440    -0.28900
C244        C  0.00004584  0.32180411  0.98062397    -0.04100
C245        C  0.00588810  0.30025374  0.97028621     0.04500
C246        C  0.01841566  0.30509399  0.44605207     0.02600
H247        H  0.99153046  0.32554190  0.00154332     0.07700
H248        H  0.02732498  0.29289741  0.43248617     0.06500
N249        N  0.98074688  0.50390446  0.15997443    -0.27900
N250        N  0.96566310  0.49293655  0.17751576    -0.35700
C251        C  0.96954074  0.47039451  0.17688235     0.00500
C252        C  0.98795527  0.46687450  0.15816120     0.06500
C253        C  0.99485286  0.48852873  0.14813543    -0.06600
H254        H  0.96126011  0.45783602  0.19157797     0.07200
H255        H  0.00997414  0.49295125  0.13497301     0.08400
Cu256      Cu  0.94513154  0.50906451  0.20835526     0.44200
Cu257      Cu  0.98282655  0.53955799  0.15560671     0.42000
Cu258      Cu  0.94648695  0.57042606  0.20614769     0.43900
N259        N  0.93599353  0.52894254  0.24464716    -0.35300
N260        N  0.93697477  0.55158858  0.24406044    -0.29500
C261        C  0.93468815  0.55948517  0.27222822    -0.05600
C262        C  0.93223138  0.54091103  0.29148924     0.06600
C263        C  0.93298462  0.52182122  0.27317019     0.00400
H264        H  0.93657463  0.57735600  0.27845472     0.08000
H265        H  0.93345738  0.50412241  0.28029803     0.07100
N266        N  0.96333707  0.58554100  0.16963862    -0.36700
N267        N  0.97792640  0.57473953  0.15252888    -0.28900
C268        C  0.98789421  0.58989498  0.13328183    -0.04100
C269        C  0.97869621  0.61131909  0.13777373     0.04500
C270        C  0.96323127  0.60766018  0.16124487     0.02600
H271        H  0.00140114  0.58550937  0.11801324     0.07700
H272        H  0.95289745  0.62029388  0.17197854     0.06500
N273        N  0.98151384  0.50524667  0.46091828    -0.27900
N274        N  0.96864509  0.49490695  0.44016632    -0.35700
C275        C  0.97328592  0.47255263  0.43921151     0.00500
C276        C  0.98986231  0.46826229  0.46025284     0.06500
C277        C  0.99498021  0.48944145  0.47336603    -0.06600
H278        H  0.96660730  0.46070159  0.42245409     0.07200
H279        H  0.00764260  0.49283359  0.98960179     0.08400
Cu280      Cu  0.94953987  0.51132712  0.40816144     0.44200
Cu281      Cu  0.98142554  0.54102826  0.46874819     0.42000
Cu282      Cu  0.95471210  0.57151836  0.40701250     0.43900
N283        N  0.94006638  0.53025593  0.37122666    -0.35300
N284        N  0.94240731  0.55282094  0.37057239    -0.29500
C285        C  0.93844875  0.56021383  0.34250753    -0.05600
C286        C  0.93359103  0.54131179  0.32454453     0.06600
C287        C  0.93466988  0.52259947  0.34357286     0.00400
H288        H  0.94063866  0.57786144  0.33529568     0.08000
H289        H  0.93339671  0.50469451  0.33735113     0.07100
N290        N  0.96743839  0.58737841  0.44542850    -0.36700
N291        N  0.97687253  0.57685845  0.46835736    -0.28900
C292        C  0.98282945  0.59228281  0.98791511    -0.04100
C293        C  0.97663543  0.61387233  0.97807177     0.04500
C294        C  0.96735805  0.60999876  0.45080706     0.02600
H295        H  0.99114621  0.58835919  0.00886932     0.07700
H296        H  0.96169178  0.62237812  0.43465814     0.06500
C297        C  0.00793935  0.27890778  0.12895296    -0.06700
C298        C  0.99822467  0.25917932  0.14208847    -0.17800
C299        C  0.99969377  0.23740695  0.12844658     0.10500
C300        C  0.00919920  0.23537231  0.09819734    -0.06600
C301        C  0.02240703  0.25470061  0.09005561    -0.17900
C302        C  0.02121958  0.27631266  0.10325653     0.10500
S303        S  0.98944006  0.21395378  0.15226607    -0.32800
S304        S  0.04004449  0.29911289  0.08954585    -0.32800
H305        H  0.02184724  0.31287563  0.08124450     0.28500
H306        H  0.97490681  0.22630313  0.17097066     0.28500
H307        H  0.99034045  0.26080349  0.16396071     0.19100
H308        H  0.03576455  0.25232340  0.07528808     0.19100
C309        C  0.00545450  0.27803833  0.98676610    -0.06700
C310        C  0.01244108  0.27812783  0.01670992    -0.17800
C311        C  0.02363457  0.25896825  0.02746650     0.10500
C312        C  0.01581463  0.23674631  0.01832110    -0.06600
C313        C  0.01065589  0.23691128  0.48701522    -0.17900
C314        C  0.00408677  0.25714674  0.47267494     0.10500
S315        S  0.05445351  0.26482827  0.02594319    -0.32800
S316        S  0.99178071  0.25465908  0.43570560    -0.32800
H317        H  0.97812148  0.27391858  0.43840026     0.28500
H318        H  0.05456908  0.28893380  0.02698999     0.28500
H319        H  0.01601823  0.29452594  0.02738083     0.19100
H320        H  0.00976048  0.22168412  0.47378504     0.19100
C321        C  0.95107870  0.16472853  0.10117106    -0.06700
C322        C  0.94681619  0.18789419  0.09716410    -0.17800
C323        C  0.96503873  0.20448697  0.09313896     0.10500
C324        C  0.98832842  0.19696589  0.08710290    -0.06600
C325        C  0.99067152  0.17315154  0.09166415    -0.17900
C326        C  0.97380793  0.16018274  0.10677545     0.10500
S327        S  0.95615661  0.23387140  0.09523029    -0.32800
S328        S  0.98158170  0.13962228  0.13427375    -0.32800
H329        H  0.95886423  0.13417841  0.14319228     0.28500
H330        H  0.93596012  0.22946673  0.11189437     0.28500
H331        H  0.92919926  0.19280891  0.09487312     0.19100
H332        H  0.00626485  0.16469816  0.08663765     0.19100
C333        C  0.98686600  0.20417114  0.02315527    -0.06700
C334        C  0.98543363  0.19021573  0.49628284    -0.17800
C335        C  0.96585509  0.17570470  0.49143957     0.10500
C336        C  0.94675694  0.17652304  0.01173946    -0.06600
C337        C  0.94541610  0.19724054  0.02779789    -0.17900
C338        C  0.96491805  0.21259574  0.02995104     0.10500
S339        S  0.96616863  0.15471025  0.46189122    -0.32800
S340        S  0.95959735  0.24267515  0.02616778    -0.32800
H341        H  0.97831763  0.25009081  0.04368598     0.28500
H342        H  0.94281561  0.14811954  0.46449892     0.28500
H343        H  0.99953784  0.18758949  0.48121247     0.19100
H344        H  0.92940115  0.20155053  0.03826118     0.19100
C345        C  0.85414514  0.07577399  0.04416188    -0.06700
C346        C  0.86570746  0.07980028  0.07148632    -0.17800
C347        C  0.88356701  0.09637581  0.07462704     0.10500
C348        C  0.88973182  0.11115932  0.05022935    -0.06600
C349        C  0.87780748  0.10762353  0.02303862    -0.17900
C350        C  0.86128260  0.08965863  0.01927390     0.10500
S351        S  0.90016561  0.09548155  0.10889077    -0.32800
S352        S  0.85219861  0.08557638  0.48202655    -0.32800
H353        H  0.85769203  0.06231316  0.48215983     0.28500
H354        H  0.88370359  0.08350964  0.12658085     0.28500
H355        H  0.86237479  0.06819877  0.09003968     0.19100
H356        H  0.88320194  0.11710042  0.00324086     0.19100
C357        C  0.02435947  0.10584998  0.05488946    -0.06700
C358        C  0.00986023  0.10368187  0.08011437    -0.17800
C359        C  0.98581806  0.10140662  0.07663526     0.10500
C360        C  0.97590474  0.10563425  0.04846890    -0.06600
C361        C  0.99004659  0.10346355  0.02316827    -0.17900
C362        C  0.01412860  0.10221163  0.02631104     0.10500
S363        S  0.96851281  0.09033411  0.10726179    -0.32800
S364        S  0.03059828  0.09856211  0.49360664    -0.32800
H365        H  0.05022471  0.09031520  0.50737423     0.28500
H366        H  0.95096392  0.08082504  0.08914312     0.28500
H367        H  0.01721192  0.10367417  0.10241032     0.19100
H368        H  0.98269240  0.10476746  0.00095962     0.19100
C369        C  0.06547498  0.16635273  0.10588585    -0.06700
C370        C  0.07255754  0.18659414  0.09145314    -0.17800
C371        C  0.05747138  0.20488583  0.08798900     0.10500
C372        C  0.03339658  0.20089085  0.09429200    -0.06600
C373        C  0.03122608  0.18575935  0.11969646    -0.17900
C374        C  0.04624381  0.16775509  0.12419807     0.10500
S375        S  0.07160111  0.23282569  0.08597167    -0.32800
S376        S  0.03918597  0.14567383  0.15123145    -0.32800
H377        H  0.06032663  0.13493190  0.14926500     0.28500
H378        H  0.09434659  0.22590773  0.08350898     0.28500
H379        H  0.08972635  0.18770889  0.08238332     0.19100
H380        H  0.01620438  0.18463220  0.13326498     0.19100
C381        C  0.03118286  0.19674738  0.02625372    -0.06700
C382        C  0.05538857  0.20364435  0.52424189    -0.17800
C383        C  0.07313495  0.18793864  0.51986669     0.10500
C384        C  0.06706468  0.16606154  0.01376065    -0.06600
C385        C  0.04583777  0.16240263  0.00111884    -0.17900
C386        C  0.02797860  0.17390751  0.01464277     0.10500
S387        S  0.10263009  0.19775795  0.52195627    -0.32800
S388        S  0.00615042  0.15442308  0.02620425    -0.32800
H389        H  0.00397621  0.14402045  0.99787849     0.28500
H390        H  0.11157566  0.17725304  0.51128063     0.28500
H391        H  0.06042792  0.22077883  0.52935535     0.19100
H392        H  0.04235548  0.14548277  0.99202162     0.19100
C393        C  0.14399195  0.06459535  0.06759500    -0.06700
C394        C  0.13860160  0.07449964  0.03975167    -0.17800
C395        C  0.12165833  0.09079593  0.03675124     0.10500
C396        C  0.11098829  0.09994956  0.06269109    -0.06600
C397        C  0.11620203  0.08983499  0.09047457    -0.17900
C398        C  0.13168849  0.07204454  0.09315700     0.10500
S399        S  0.10546870  0.09080444  0.50143451    -0.32800
S400        S  0.13307412  0.05747218  0.12896414    -0.32800
H401        H  0.12172110  0.07375467  0.14617393     0.28500
H402        H  0.11794370  0.07455863  0.48562664     0.28500
H403        H  0.14577713  0.06777810  0.01933810     0.19100
H404        H  0.10664811  0.09461187  0.11014431     0.19100
C405        C  0.79623027  0.01643852  0.08954003    -0.06700
C406        C  0.80066166  0.99496740  0.10137711    -0.17800
C407        C  0.78264891  0.97898620  0.10575374     0.10500
C408        C  0.76374383  0.97894058  0.08495393    -0.06600
C409        C  0.75781117  0.00173665  0.07812399    -0.17900
C410        C  0.77328421  0.02058462  0.08258270     0.10500
S411        S  0.77819019  0.97860626  0.14602667    -0.32800
S412        S  0.76355313  0.04927632  0.07821044    -0.32800
H413        H  0.78195865  0.05977749  0.09389396     0.28500
H414        H  0.75498904  0.97229949  0.14651722     0.28500
H415        H  0.81720976  0.99212819  0.11129396     0.19100
H416        H  0.74113783  0.00519869  0.06992045     0.19100
C417        C  0.75897228  0.98362663  0.01540117    -0.06700
C418        C  0.77811133  0.98311871  0.99460203    -0.17800
C419        C  0.78985994  0.00252020  0.98352234     0.10500
C420        C  0.78803202  0.02263504  0.99986104    -0.06600
C421        C  0.76593248  0.02532554  0.01271452    -0.17900
C422        C  0.75116432  0.00558941  0.51496421     0.10500
S423        S  0.81060751  0.00031136  0.95407796    -0.32800
S424        S  0.72806875  0.01023170  0.48908348    -0.32800
H425        H  0.72894359  0.98856976  0.47539274     0.28500
H426        H  0.80681971  0.97654925  0.95005002     0.28500
H427        H  0.77884963  0.98234794  0.01841339     0.19100
H428        H  0.76219584  0.04174036  0.51759749     0.19100
C429        C  0.86318608  0.94187786  0.05698208    -0.06700
C430        C  0.86518044  0.95045738  0.02740952    -0.17800
C431        C  0.86167833  0.97379322  0.02054614     0.10500
C432        C  0.85577648  0.98923879  0.04356282    -0.06600
C433        C  0.85690814  0.98132959  0.07334022    -0.17900
C434        C  0.86044029  0.95809831  0.08020363     0.10500
S435        S  0.86365340  0.98109003  0.48321013    -0.32800
S436        S  0.85849033  0.94953981  0.11900496    -0.32800
H437        H  0.86913511  0.92850573  0.11527152     0.28500
H438        H  0.86620662  0.00486753  0.48757729     0.28500
H439        H  0.86694607  0.93845719  0.00909593     0.19100
H440        H  0.85351242  0.99307756  0.09142555     0.19100
C441        C  0.79569644  0.90136775  0.09668686    -0.06700
C442        C  0.79445076  0.92223809  0.11243392    -0.17800
C443        C  0.77332624  0.93336337  0.11426830     0.10500
C444        C  0.75923749  0.93312779  0.08827602    -0.06600
C445        C  0.75626346  0.90936265  0.07990056    -0.17900
C446        C  0.77378130  0.89295595  0.08628414     0.10500
S447        S  0.75876604  0.92625212  0.14915670    -0.32800
S448        S  0.76998314  0.86421721  0.07221039    -0.32800
H449        H  0.78493660  0.85491685  0.09327350     0.28500
H450        H  0.73681940  0.93205977  0.13939132     0.28500
H451        H  0.80924041  0.92912776  0.12443302     0.19100
H452        H  0.74441069  0.90390877  0.06310481     0.19100
C453        C  0.80118605  0.90834654  0.01038827    -0.06700
C454        C  0.78654046  0.91206477  0.03236898    -0.17800
C455        C  0.78323862  0.93541004  0.03683513     0.10500
C456        C  0.76618423  0.94132202  0.01836216    -0.06600
C457        C  0.77524714  0.93450868  0.48987295    -0.17900
C458        C  0.79583048  0.92026642  0.48672662     0.10500
S459        S  0.80766802  0.95557783  0.03344142    -0.32800
S460        S  0.81227076  0.92075608  0.45272546    -0.32800
H461        H  0.82952883  0.90692060  0.46401275     0.28500
H462        H  0.80650244  0.96182071  0.06350072     0.28500
H463        H  0.77157307  0.90068076  0.02918981     0.19100
H464        H  0.76756528  0.94212784  0.47034640     0.19100
C465        C  0.86236462  0.85443337  0.05107750    -0.06700
C466        C  0.87109020  0.84738688  0.07893027    -0.17800
C467        C  0.88714941  0.83018357  0.08155120     0.10500
C468        C  0.89382175  0.81773064  0.05574398    -0.06600
C469        C  0.88459576  0.82432492  0.02792311    -0.17900
C470        C  0.87019765  0.84297429  0.02505731     0.10500
S471        S  0.90079774  0.82669442  0.11768968    -0.32800
S472        S  0.86777054  0.85367167  0.48985403    -0.32800
H473        H  0.87529701  0.87614123  0.49724112     0.28500
H474        H  0.88893612  0.84327942  0.13371500     0.28500
H475        H  0.86655143  0.85679856  0.09883171     0.19100
H476        H  0.89078730  0.81684997  0.00742344     0.19100
C477        C  0.99283013  0.67899089  0.09718753    -0.06700
C478        C  0.99879076  0.65874707  0.08267980    -0.17800
C479        C  0.99387727  0.63668394  0.09409061     0.10500
C480        C  0.98480610  0.63397586  0.12329123    -0.06600
C481        C  0.98235027  0.65385860  0.14027357    -0.17900
C482        C  0.98705068  0.67592037  0.12851830     0.10500
S483        S  0.99971682  0.61301039  0.06986174    -0.32800
S484        S  0.98451170  0.69897768  0.15524454    -0.32800
H485        H  0.98788867  0.68615573  0.18153138     0.28500
H486        H  0.97827169  0.60188088  0.07495323     0.28500
H487        H  0.00950622  0.65984850  0.06366806     0.19100
H488        H  0.97683627  0.65219169  0.16338216     0.19100
C489        C  0.94695689  0.75711819  0.10190979    -0.06700
C490        C  0.93777059  0.73445995  0.10021919    -0.17800
C491        C  0.95283831  0.71548489  0.09990397     0.10500
C492        C  0.97676509  0.71993455  0.09084512    -0.06600
C493        C  0.98275828  0.74364059  0.08958360    -0.17900
C494        C  0.97017626  0.75866983  0.10634009     0.10500
S495        S  0.93985631  0.68782524  0.11005920    -0.32800
S496        S  0.98331344  0.78273507  0.12479731    -0.32800
H497        H  0.96271711  0.79072811  0.13667863     0.28500
H498        H  0.91954171  0.69617794  0.12224004     0.28500
H499        H  0.91938760  0.73160757  0.09873495     0.19100
H500        H  0.99895858  0.74987880  0.08046182     0.19100
C501        C  0.99333815  0.68009386  0.01989661    -0.06700
C502        C  0.97473149  0.67741272  0.99935145    -0.17800
C503        C  0.96812344  0.65678915  0.48760630     0.10500
C504        C  0.98133910  0.63668105  0.99262696    -0.06600
C505        C  0.00269836  0.64107987  0.00614440    -0.17900
C506        C  0.01012684  0.66397734  0.01104502     0.10500
S507        S  0.94130134  0.65568999  0.46765249    -0.32800
S508        S  0.03016487  0.67242917  0.98140226    -0.32800
H509        H  0.04231281  0.65203602  0.98117191     0.28500
H510        H  0.93413215  0.63418400  0.47928293     0.28500
H511        H  0.96649061  0.69280675  0.49112762     0.19100
H512        H  0.01534940  0.62799587  0.00487952     0.19100
C513        C  0.94731392  0.75631482  0.01311877    -0.06700
C514        C  0.93892987  0.73535919  0.02477596    -0.17800
C515        C  0.95367839  0.71718493  0.03115827     0.10500
C516        C  0.97861996  0.72094376  0.03000189    -0.06600
C517        C  0.98515924  0.74332081  0.01953963    -0.17900
C518        C  0.97021815  0.75703431  0.50437401     0.10500
S519        S  0.93801307  0.69072400  0.04023058    -0.32800
S520        S  0.98044923  0.77773468  0.47733491    -0.32800
H521        H  0.95860487  0.78548749  0.46998198     0.28500
H522        H  0.95637928  0.67954177  0.05316330     0.28500
H523        H  0.92099320  0.73368689  0.03101124     0.19100
H524        H  0.00242378  0.75124622  0.52271548     0.19100
C525        C  0.23505960  0.97359715  0.10112452    -0.06700
C526        C  0.24255993  0.99624259  0.11075394    -0.17800
C527        C  0.22649290  0.01430373  0.11483131     0.10500
C528        C  0.20254258  0.00889987  0.11670228    -0.06600
C529        C  0.19799337  0.98639042  0.12412055    -0.17900
C530        C  0.21104936  0.96978539  0.10971932     0.10500
S531        S  0.23716992  0.04352286  0.11525361    -0.32800
S532        S  0.19245819  0.94793205  0.09636737    -0.32800
H533        H  0.18060259  0.94495436  0.12358254     0.28500
H534        H  0.21715874  0.05224522  0.12772129     0.28500
H535        H  0.26038946  0.00102844  0.11225461     0.19100
H536        H  0.18028021  0.98223895  0.13010549     0.19100
C537        C  0.23820675  0.97505076  0.02990825    -0.06700
C538        C  0.23695570  0.99050490  0.50240073    -0.17800
C539        C  0.21994018  0.00902430  0.50253591     0.10500
C540        C  0.20908955  0.01412695  0.03081769    -0.06600
C541        C  0.21871321  0.00133479  0.05221656    -0.17900
C542        C  0.21836912  0.97793758  0.04457250     0.10500
S543        S  0.21220925  0.02277778  0.46822726    -0.32800
S544        S  0.19347143  0.96660941  0.02315810    -0.32800
H545        H  0.19203793  0.94588158  0.03687839     0.28500
H546        H  0.19705855  0.03777948  0.48184086     0.28500
H547        H  0.24726991  0.98844623  0.48253866     0.19100
H548        H  0.23433792  0.00993780  0.05957140     0.19100
C549        C  0.14713517  0.92848337  0.06346835    -0.06700
C550        C  0.14499236  0.94141185  0.03701060    -0.17800
C551        C  0.14030960  0.96507978  0.03785137     0.10500
C552        C  0.13934864  0.97677315  0.06566597    -0.06600
C553        C  0.13751597  0.96302773  0.09166452    -0.17900
C554        C  0.14003323  0.93894616  0.09055682     0.10500
S555        S  0.13832806  0.98057082  0.50395172    -0.32800
S556        S  0.13715708  0.92314903  0.12519513    -0.32800
H557        H  0.12872921  0.90280112  0.11188736     0.28500
H558        H  0.12700200  0.99924889  0.51617084     0.28500
H559        H  0.14858448  0.93349380  0.01562275     0.19100
H560        H  0.13613664  0.97126904  0.11332252     0.19100
C561        C  0.21293593  0.89228401  0.10507397    -0.06700
C562        C  0.23361676  0.89009486  0.08986521    -0.17800
C563        C  0.25099201  0.90751625  0.09216618     0.10500
C564        C  0.24335194  0.92982464  0.09892019    -0.06600
C565        C  0.22989004  0.92733616  0.12586492    -0.17900
C566        C  0.21353093  0.90871597  0.12815309     0.10500
S567        S  0.27451620  0.89657154  0.11359032    -0.32800
S568        S  0.19307113  0.90758292  0.15839585    -0.32800
H569        H  0.18302916  0.88620331  0.15024628     0.28500
H570        H  0.27638083  0.87645567  0.09647849     0.28500
H571        H  0.23748511  0.87318664  0.08217787     0.19100
H572        H  0.22942158  0.94078907  0.14248475     0.19100
C573        C  0.21016011  0.89565250  0.01398620    -0.06700
C574        C  0.20857588  0.91655844  0.99917794    -0.17800
C575        C  0.22664175  0.93315001  0.00139594     0.10500
C576        C  0.24239873  0.93213448  0.02606577    -0.06600
C577        C  0.24844025  0.90897739  0.02973295    -0.17900
C578        C  0.23250290  0.89062031  0.02309102     0.10500
S579        S  0.23443668  0.94613906  0.96606710    -0.32800
S580        S  0.24135431  0.86143440  0.02482362    -0.32800
H581        H  0.22167226  0.85196498  0.01075249     0.28500
H582        H  0.25797228  0.94804023  0.97263613     0.28500
H583        H  0.19370650  0.91976699  0.98551636     0.19100
H584        H  0.26465621  0.90444682  0.03821486     0.19100
C585        C  0.02664466  0.80903064  0.05496167    -0.06700
C586        C  0.01641245  0.81699510  0.08137350    -0.17800
C587        C  0.99372597  0.82456236  0.08097309     0.10500
C588        C  0.98042031  0.82143731  0.05488248    -0.06600
C589        C  0.99219924  0.81864365  0.02781088    -0.17900
C590        C  0.01538659  0.81296648  0.02754600     0.10500
S591        S  0.98231849  0.83807195  0.11384118    -0.32800
S592        S  0.02957949  0.80899716  0.49137851    -0.32800
H593        H  0.05208879  0.81376128  0.50110723     0.28500
H594        H  0.96268285  0.84610791  0.09965523     0.28500
H595        H  0.02578652  0.81679698  0.10231529     0.19100
H596        H  0.98278483  0.81932717  0.00699122     0.19100
C597        C  0.01957341  0.71365985  0.09943372    -0.06700
C598        C  0.01951334  0.73193077  0.12122097    -0.17800
C599        C  0.03764964  0.74839358  0.12193187     0.10500
C600        C  0.05672683  0.74473857  0.10416587    -0.06600
C601        C  0.06062048  0.72161770  0.09770513    -0.17900
C602        C  0.04197706  0.70526031  0.09917078     0.10500
S603        S  0.03616787  0.77359316  0.14495768    -0.32800
S604        S  0.04777470  0.67801290  0.11616255    -0.32800
H605        H  0.03247224  0.68084426  0.14011661     0.28500
H606        H  0.05861936  0.78199409  0.13901099     0.28500
H607        H  0.00475020  0.73592347  0.13439006     0.19100
H608        H  0.07777409  0.71633513  0.09270117     0.19100
C609        C  0.02238270  0.71194740  0.02728472    -0.06700
C610        C  0.02402716  0.72321016  0.49900388    -0.17800
C611        C  0.04166362  0.73963700  0.49324469     0.10500
C612        C  0.05928746  0.74161564  0.01371080    -0.06600
C613        C  0.06321665  0.72192851  0.03042126    -0.17900
C614        C  0.04498563  0.70590216  0.03607129     0.10500
S615        S  0.04050912  0.75733398  0.46036984    -0.32800
S616        S  0.05282679  0.67709623  0.04597680    -0.32800
H617        H  0.07642383  0.68185001  0.04993449     0.28500
H618        H  0.06225524  0.76804294  0.46472998     0.28500
H619        H  0.00980755  0.72175853  0.48346061     0.19100
H620        H  0.07986572  0.72002963  0.04052372     0.19100
C621        C  0.11212056  0.80562327  0.05574191    -0.06700
C622        C  0.12245368  0.81157960  0.08332060    -0.17800
C623        C  0.13851419  0.82987058  0.08610526     0.10500
C624        C  0.14697811  0.84162897  0.06010287    -0.06600
C625        C  0.13675630  0.83559318  0.03246547    -0.17900
C626        C  0.11917774  0.81858871  0.03003025     0.10500
S627        S  0.14410166  0.83889180  0.12418137    -0.32800
S628        S  0.11094033  0.81070513  0.49242346    -0.32800
H629        H  0.13087749  0.81737273  0.47636268     0.28500
H630        H  0.13996508  0.86204782  0.11847618     0.28500
H631        H  0.11610549  0.80389242  0.10390121     0.19100
H632        H  0.14129967  0.84558928  0.01277099     0.19100
C633        C  0.68012157  0.94227202  0.99011468    -0.06700
C634        C  0.68272417  0.96124568  0.00886046    -0.17800
C635        C  0.70369752  0.96728056  0.02292692     0.10500
C636        C  0.72383725  0.95403440  0.01785562    -0.06600
C637        C  0.72166477  0.93472326  0.50024017    -0.17900
C638        C  0.70041411  0.92892734  0.48726542     0.10500
S639        S  0.70231669  0.99198980  0.04710791    -0.32800
S640        S  0.69802541  0.90205796  0.46733552    -0.32800
H641        H  0.67582825  0.89620069  0.47785287     0.28500
H642        H  0.67889669  0.98958052  0.05449718     0.28500
H643        H  0.66806530  0.97180991  0.01214669     0.19100
H644        H  0.73439143  0.92216981  0.49689938     0.19100
C645        C  0.67964346  0.96105167  0.11670092    -0.06700
C646        C  0.68320956  0.94387999  0.09597175    -0.17800
C647        C  0.70459897  0.94103038  0.08216415     0.10500
C648        C  0.72370156  0.95719759  0.08739110    -0.06600
C649        C  0.71903313  0.97408214  0.10974267    -0.17900
C650        C  0.69789885  0.97604440  0.12408694     0.10500
S651        S  0.70476461  0.91550598  0.05976326    -0.32800
S652        S  0.69541434  0.99833649  0.15184644    -0.32800
H653        H  0.67198012  0.00185619  0.14735611     0.26900
H654        H  0.68188490  0.91578292  0.04985335     0.28500
H655        H  0.66917944  0.93159713  0.09189592     0.19100
H656        H  0.73136801  0.98688733  0.11680784     0.19100
C657        C  0.32255389  0.96216638  0.99605214    -0.06700
C658        C  0.31775657  0.94357911  0.01484436    -0.17800
C659        C  0.29767628  0.94176898  0.03253405     0.10500
C660        C  0.27936477  0.95754500  0.02932757    -0.06600
C661        C  0.28585986  0.97740034  0.50984141    -0.17900
C662        C  0.30646940  0.98033091  0.49382497     0.10500
S663        S  0.30003561  0.92180541  0.06240109    -0.32800
S664        S  0.31159086  0.00768610  0.47560325    -0.32800
H665        H  0.33449348  0.01023454  0.48514482     0.28500
H666        H  0.32401607  0.92345300  0.06586377     0.28500
H667        H  0.33050302  0.93062447  0.01675069     0.19100
H668        H  0.27661265  0.99273194  0.51101263     0.19100
C669        C  0.32198410  0.96269529  0.12449216    -0.06700
C670        C  0.31676407  0.97583649  0.09951915    -0.17800
C671        C  0.29427454  0.97668476  0.08851114     0.10500
C672        C  0.27666107  0.96038915  0.09885956    -0.06600
C673        C  0.28213758  0.94992261  0.12675510    -0.17900
C674        C  0.30418447  0.95022770  0.13885704     0.10500
S675        S  0.29010974  0.00312392  0.06869323    -0.32800
S676        S  0.30843090  0.93406153  0.17284690    -0.32800
H677        H  0.33103295  0.92821487  0.16618881     0.28500
H678        H  0.26773503  0.99775420  0.06151072     0.28500
H679        H  0.32992165  0.98759410  0.09062165     0.19100
H680        H  0.26942073  0.94096100  0.14011541     0.19100
N681        N  0.45509752  0.97131183  0.64635420    -0.27900
N682        N  0.46543529  0.98244826  0.66871468    -0.35700
C683        C  0.48784694  0.97821259  0.66826626     0.00500
C684        C  0.49210338  0.96369222  0.64470970     0.06500
C685        C  0.47092118  0.95944262  0.63139818    -0.06600
H686        H  0.49970768  0.98315495  0.68594391     0.07200
H687        H  0.46696291  0.94704389  0.61397041     0.08400
Cu688      Cu  0.44944457  0.99721508  0.70496037     0.44200
Cu689      Cu  0.41942330  0.96956843  0.64025778     0.42000
Cu690      Cu  0.38970658  0.98777533  0.70653415     0.43900
N691        N  0.43036808  0.00220188  0.74343049    -0.35300
N692        N  0.40792473  0.99864749  0.74359305    -0.29500
C693        C  0.40011312  0.99991606  0.77183058    -0.05600
C694        C  0.41858334  0.00422266  0.79055327     0.06600
C695        C  0.43756982  0.00567432  0.77181427     0.00400
H696        H  0.38252283  0.99617641  0.77839619     0.08000
H697        H  0.45535939  0.00738555  0.77847643     0.07100
N698        N  0.37321658  0.97549281  0.66881703    -0.36700
N699        N  0.38357003  0.96930608  0.64385383    -0.28900
C700        C  0.36735220  0.96323481  0.62348517    -0.04100
C701        C  0.34596701  0.96529950  0.63674784     0.04500
C702        C  0.35044222  0.97329036  0.66531780     0.02600
H703        H  0.37081316  0.95775188  0.60079528     0.07700
H704        H  0.33801891  0.97778163  0.68216119     0.06500
N705        N  0.45395067  0.95857592  0.96204470    -0.27900
N706        N  0.46417017  0.97087447  0.94055247    -0.35700
C707        C  0.48637380  0.96584073  0.93907067     0.00500
C708        C  0.49078911  0.94962013  0.96059181     0.06500
C709        C  0.46976433  0.94517155  0.97464209    -0.06600
H710        H  0.49794135  0.97178660  0.92146899     0.07200
H711        H  0.46600681  0.93194910  0.49121660     0.08400
Cu712      Cu  0.44765825  0.98901778  0.90783847     0.44200
Cu713      Cu  0.41809511  0.95870247  0.96938508     0.42000
Cu714      Cu  0.38729637  0.98222961  0.90569622     0.43900
N715        N  0.42894723  0.99709566  0.87032732    -0.35300
N716        N  0.40644283  0.99410526  0.86942144    -0.29500
C717        C  0.39924110  0.99759601  0.84124547    -0.05600
C718        C  0.41819309  0.00285744  0.82349105     0.06600
C719        C  0.43677054  0.00246170  0.84267676     0.00400
H720        H  0.38168223  0.99502452  0.83392277     0.08000
H721        H  0.45470528  0.00429385  0.83665052     0.07100
N722        N  0.37140300  0.97079390  0.94474902    -0.36700
N723        N  0.38215593  0.96249507  0.96828298    -0.28900
C724        C  0.36667753  0.95816805  0.48847881    -0.04100
C725        C  0.34537443  0.96526487  0.47863076     0.04500
C726        C  0.34885114  0.97152637  0.95069202     0.02600
H727        H  0.37029300  0.95001136  0.50967611     0.07700
H728        H  0.33627469  0.97756157  0.93504648     0.06500
N729        N  0.54975280  0.94386821  0.64267487    -0.27900
N730        N  0.54055909  0.93119390  0.66452104    -0.35700
C731        C  0.51789897  0.93419293  0.66535907     0.00500
C732        C  0.51229542  0.94949026  0.64311577     0.06500
C733        C  0.53298412  0.95544387  0.62930143    -0.06600
H734        H  0.50680735  0.92813314  0.68340882     0.07200
H735        H  0.53597835  0.96908137  0.61313594     0.08400
Cu736      Cu  0.55877474  0.91625604  0.69870659     0.44200
Cu737      Cu  0.58512849  0.94856013  0.63669892     0.42000
Cu738      Cu  0.61765476  0.93223487  0.70270521     0.43900
N739        N  0.57846619  0.90991691  0.73617036    -0.35300
N740        N  0.60044696  0.91595409  0.73748569    -0.29500
C741        C  0.60813685  0.91245327  0.76542006    -0.05600
C742        C  0.58999698  0.90407333  0.78270839     0.06600
C743        C  0.57143862  0.90258039  0.76342823     0.00400
H744        H  0.62521873  0.91729314  0.77303257     0.08000
H745        H  0.55383422  0.89811622  0.76923578     0.07100
N746        N  0.63206832  0.94715184  0.66495804    -0.36700
N747        N  0.62077376  0.95207242  0.64019929    -0.28900
C748        C  0.63609953  0.95854930  0.61887058    -0.04100
C749        C  0.65785089  0.95817967  0.63125516     0.04500
C750        C  0.65461705  0.95074947  0.66033189     0.02600
H751        H  0.63183598  0.96234550  0.59581549     0.07700
H752        H  0.66779426  0.94662850  0.67628934     0.06500
N753        N  0.54841050  0.92846649  0.95989837    -0.27900
N754        N  0.53910574  0.91789740  0.93637788    -0.35700
C755        C  0.51655502  0.92166884  0.93573426     0.00500
C756        C  0.51100249  0.93518021  0.95991852     0.06500
C757        C  0.53172678  0.93938009  0.97459970    -0.06600
H758        H  0.50550847  0.91726395  0.91697458     0.07200
H759        H  0.53547888  0.95374635  0.49380037     0.08400
Cu760      Cu  0.55710572  0.90472888  0.90054277     0.44200
Cu761      Cu  0.58411003  0.93120904  0.96743618     0.42000
Cu762      Cu  0.61668936  0.91838526  0.90083695     0.43900
N763        N  0.57738421  0.90196009  0.86257592    -0.35300
N764        N  0.59950825  0.90749348  0.86287487    -0.29500
C765        C  0.60763057  0.90751655  0.83468568    -0.05600
C766        C  0.58969287  0.90189565  0.81557246     0.06600
C767        C  0.57074712  0.89835649  0.83399980     0.00400
H768        H  0.62493371  0.91288125  0.82847905     0.08000
H769        H  0.55317438  0.89521647  0.82702689     0.07100
N770        N  0.63163137  0.92869853  0.94062308    -0.36700
N771        N  0.62026629  0.93315016  0.96551365    -0.28900
C772        C  0.63717450  0.94062132  0.48901790    -0.04100
C773        C  0.65911498  0.93860173  0.47715913     0.04500
C774        C  0.65424278  0.93140345  0.94552182     0.02600
H775        H  0.63285230  0.94518794  0.51180643     0.07700
H776        H  0.66725394  0.92910114  0.92858874     0.06500
C777        C  0.09029306  0.79092948  0.55578597     0.85900
C778        C  0.08621589  0.77463590  0.58314488    -0.54300
C779        C  0.06522343  0.76340384  0.58300184     0.08800
C780        C  0.05016318  0.76989474  0.55605496     0.19800
C781        C  0.08618366  0.77429758  0.52904596    -0.55100
C782        C  0.06495939  0.76361065  0.52889652     0.08900
C783        C  0.06999253  0.80698650  0.55603333    -0.54600
C784        C  0.04906419  0.79623885  0.55609771     0.09500
H785        H  0.09906404  0.77129733  0.60000237     0.14000
H786        H  0.03307779  0.76101728  0.55606158    -0.00200
H787        H  0.09985641  0.76855437  0.51469743     0.14300
H788        H  0.07208894  0.82556144  0.55564465     0.14100
C789        C  0.16278837  0.86380693  0.55992345     0.85900
C790        C  0.17857279  0.86801433  0.53187341    -0.54300
C791        C  0.19078057  0.88840613  0.53266243     0.08800
C792        C  0.18597469  0.90233041  0.56067732     0.19800
C793        C  0.18024546  0.86611755  0.58623803    -0.55100
C794        C  0.19216010  0.88668701  0.58687068     0.08900
C795        C  0.14779108  0.88510827  0.56174015    -0.54600
C796        C  0.15961329  0.90562334  0.56214352     0.09500
H797        H  0.18137154  0.85546935  0.51447620     0.14000
H798        H  0.19758683  0.91707189  0.56018578    -0.00200
H799        H  0.18430845  0.85210336  0.60109709     0.14300
H800        H  0.12918927  0.88392642  0.56263937     0.14100
C801        C  0.25393534  0.95485019  0.54220473    -0.03100
C802        C  0.25268031  0.95455559  0.58337976    -0.03100
C803        C  0.99860476  0.70343658  0.54120077    -0.03100
C804        C  0.99754316  0.70344559  0.58175041    -0.03100
C805        C  0.85008160  0.87640821  0.55463838     0.85900
C806        C  0.83144911  0.87637368  0.58034162    -0.54300
C807        C  0.82075363  0.89665633  0.58373325     0.08800
C808        C  0.83051015  0.91426124  0.56143464     0.19800
C809        C  0.83585803  0.88328292  0.52657856    -0.55100
C810        C  0.82583509  0.90408977  0.52878820     0.08900
C811        C  0.86672019  0.89751164  0.56013781    -0.54600
C812        C  0.85600241  0.91754678  0.56372845     0.09500
H813        H  0.82642510  0.86114759  0.59304306     0.14000
H814        H  0.82419714  0.92958464  0.57058286    -0.00200
H815        H  0.82954520  0.87084361  0.51028152     0.14300
H816        H  0.88523161  0.89679190  0.55839966     0.14100
C817        C  0.91642972  0.80358518  0.55717502     0.85900
C818        C  0.92016135  0.78765797  0.52947651    -0.54300
C819        C  0.94098988  0.77758928  0.52980561     0.08800
C820        C  0.95553425  0.78440978  0.55682458     0.19800
C821        C  0.91949516  0.78653171  0.58368517    -0.55100
C822        C  0.94028036  0.77659459  0.58343267     0.08900
C823        C  0.93756760  0.82054951  0.55758333    -0.54600
C824        C  0.95797758  0.81034185  0.55742054     0.09500
H825        H  0.90682751  0.78246218  0.51372132     0.14000
H826        H  0.97265747  0.77709428  0.55605154    -0.00200
H827        H  0.90616086  0.78170849  0.59972203     0.14300
H828        H  0.93631206  0.83906301  0.55702693     0.14100
C829        C  0.75026152  0.95874590  0.53377905    -0.03100
C830        C  0.75024524  0.95643406  0.57431123    -0.03100
C831        C  0.09117489  0.11594344  0.56261131     0.85900
C832        C  0.09126652  0.13343623  0.53614220    -0.54300
C833        C  0.07233707  0.14652442  0.53546474     0.08800
C834        C  0.05528160  0.14072470  0.56115083     0.19800
C835        C  0.08859060  0.13199278  0.59032361    -0.55100
C836        C  0.06954423  0.14485705  0.58912915     0.08900
C837        C  0.06806876  0.10201832  0.56035041    -0.54600
C838        C  0.04915502  0.11493629  0.55927316     0.09500
H839        H  0.10521514  0.13579209  0.52020653     0.14000
H840        H  0.04029657  0.15135757  0.56219392    -0.00200
H841        H  0.10185108  0.13524009  0.60695518     0.14300
H842        H  0.06691704  0.08342358  0.55940459     0.14100
C843        C  0.15788977  0.04213031  0.56945315     0.85900
C844        C  0.17488909  0.03875141  0.59639587    -0.54300
C845        C  0.18477390  0.01782211  0.59661310     0.08800
C846        C  0.17627534  0.00320780  0.56975285     0.19800
C847        C  0.17408536  0.03838576  0.54173507    -0.55100
C848        C  0.18441235  0.01762513  0.54153632     0.08900
C849        C  0.14063755  0.02105121  0.56964821    -0.54600
C850        C  0.15060398  0.00050603  0.56968222     0.09500
H851        H  0.17963142  0.05202036  0.61238647     0.14000
H852        H  0.18232906  0.98607418  0.57135071    -0.00200
H853        H  0.18029128  0.05253183  0.52774325     0.14300
H854        H  0.12215903  0.02249281  0.56885895     0.14100
C855        C  0.84062164  0.05287013  0.54254783     0.85900
C856        C  0.82177233  0.05013077  0.51778831    -0.54300
C857        C  0.81089253  0.02897389  0.51766935     0.08800
C858        C  0.81968093  0.01306819  0.54200414     0.19800
C859        C  0.82642918  0.04713890  0.57156256    -0.55100
C860        C  0.81552982  0.02603080  0.57069838     0.08900
C861        C  0.85658697  0.03222948  0.53894848    -0.54600
C862        C  0.84568009  0.01117897  0.53908660     0.09500
H863        H  0.81547617  0.06401746  0.50439454     0.14000
H864        H  0.81036052  0.99692748  0.54233880    -0.00200
H865        H  0.82422291  0.05903037  0.58993858     0.14300
H866        H  0.87515871  0.03418078  0.53911811     0.14100
C867        C  0.91309460  0.12568315  0.55042508     0.85900
C868        C  0.91854463  0.13998754  0.57936617    -0.54300
C869        C  0.94025014  0.14961003  0.57950360     0.08800
C870        C  0.95355148  0.14479129  0.55107313     0.19800
C871        C  0.91740816  0.14416558  0.52511817    -0.55100
C872        C  0.93897363  0.15444526  0.52614930     0.08900
C873        C  0.93292781  0.10880409  0.54713980    -0.54600
C874        C  0.95426451  0.11872062  0.54788258     0.09500
H875        H  0.90626226  0.14297254  0.59710795     0.14000
H876        H  0.96992471  0.15330142  0.55181995    -0.00200
H877        H  0.90426860  0.15033083  0.51031929     0.14300
H878        H  0.93015123  0.09033642  0.54570291     0.14100
C879        C  0.01231958  0.21311894  0.53766688    -0.03100
C880        C  0.01162640  0.21284457  0.57823944    -0.03100
N881        N  0.00828200  0.41059967  0.65803443    -0.27900
N882        N  0.02256725  0.42147574  0.67667906    -0.35700
C883        C  0.01875520  0.44401240  0.67591957     0.00500
C884        C  0.00108052  0.44766888  0.65622121     0.06500
C885        C  0.99463833  0.42610869  0.64550052    -0.06600
H886        H  0.02642332  0.45644072  0.69123203     0.07200
H887        H  0.98006761  0.42182888  0.63135200     0.08400
Cu888      Cu  0.04172800  0.40585720  0.70936480     0.44200
Cu889      Cu  0.00603071  0.37481650  0.65326977     0.42000
Cu890      Cu  0.03564216  0.34519975  0.71158923     0.43900
N891        N  0.05198663  0.38677414  0.74581693    -0.35300
N892        N  0.04992226  0.36418706  0.74612572    -0.29500
C893        C  0.05462014  0.35648187  0.77371045    -0.05600
C894        C  0.05957305  0.37513199  0.79193017     0.06600
C895        C  0.05785294  0.39412838  0.77348124     0.00400
H896        H  0.05244085  0.33875455  0.78057156     0.08000
H897        H  0.05876360  0.41193267  0.78022252     0.07100
N898        N  0.01898644  0.32854910  0.67677385    -0.36700
N899        N  0.00838264  0.33903918  0.65477585    -0.28900
C900        C  0.00147602  0.32316509  0.63439871    -0.04100
C901        C  0.00802921  0.30179081  0.64432376     0.04500
C902        C  0.01893319  0.30594250  0.67129353     0.02600
H903        H  0.99314952  0.32699196  0.61341263     0.07700
H904        H  0.02756394  0.29361518  0.68498167     0.06500
N905        N  0.00968805  0.40983821  0.95844714    -0.27900
N906        N  0.02443153  0.42035961  0.93996374    -0.35700
C907        C  0.02110881  0.44300947  0.94041579     0.00500
C908        C  0.00351132  0.44728156  0.96012806     0.06500
C909        C  0.99639730  0.42578638  0.97078386    -0.06600
H910        H  0.02918396  0.45518300  0.92500437     0.07200
H911        H  0.98214314  0.42213518  0.48624265     0.08400
Cu912      Cu  0.04420806  0.40413137  0.90845832     0.44200
Cu913      Cu  0.00655058  0.37388588  0.96298083     0.42000
Cu914      Cu  0.03722180  0.34376563  0.90522021     0.43900
N915        N  0.05452709  0.38541303  0.87180836    -0.35300
N916        N  0.05200518  0.36286825  0.87088252    -0.29500
C917        C  0.05571740  0.35569740  0.84276291    -0.05600
C918        C  0.06042410  0.37469946  0.82490789     0.06600
C919        C  0.05973544  0.39327681  0.84412307     0.00400
H920        H  0.05263453  0.33822987  0.83531939     0.08000
H921        H  0.06046587  0.41120847  0.83790382     0.07100
N922        N  0.01906764  0.32743503  0.93930709    -0.36700
N923        N  0.00807702  0.33789039  0.96100806    -0.28900
C924        C  0.00071267  0.32202907  0.48289785    -0.04100
C925        C  0.00620116  0.30051635  0.47204951     0.04500
C926        C  0.01813126  0.30475144  0.94422257     0.02600
H927        H  0.99236947  0.32563728  0.50398059     0.07700
H928        H  0.02722661  0.29256071  0.93088140     0.06500
N929        N  0.98057916  0.50526712  0.65988993    -0.27900
N930        N  0.96460900  0.49383300  0.67551624    -0.35700
C931        C  0.96822878  0.47127529  0.67356579     0.00500
C932        C  0.98743985  0.46828167  0.65604376     0.06500
C933        C  0.99502867  0.49021829  0.64810247    -0.06600
H934        H  0.95917771  0.45824088  0.68674889     0.07200
H935        H  0.01074444  0.49497270  0.63637609     0.08400
Cu936      Cu  0.94308664  0.50923288  0.70589948     0.44200
Cu937      Cu  0.98298192  0.54093534  0.65748359     0.42000
Cu938      Cu  0.94363458  0.57078167  0.70460338     0.43900
N939        N  0.93350380  0.52879229  0.74235004    -0.35300
N940        N  0.93397365  0.55144287  0.74191365    -0.29500
C941        C  0.93222797  0.55921242  0.77019497    -0.05600
C942        C  0.93080374  0.54059088  0.78943154     0.06600
C943        C  0.93141680  0.52155998  0.77095856     0.00400
H944        H  0.93422066  0.57706556  0.77646370     0.08000
H945        H  0.93276666  0.50391199  0.77797150     0.07100
N946        N  0.96200715  0.58643804  0.66982554    -0.36700
N947        N  0.97758533  0.57591680  0.65397868    -0.28900
C948        C  0.98796284  0.59114397  0.63522469    -0.04100
C949        C  0.97804771  0.61228478  0.63874095     0.04500
C950        C  0.96177053  0.60850099  0.66118680     0.02600
H951        H  0.00210016  0.58703114  0.62079850     0.07700
H952        H  0.95072517  0.62098973  0.67091978     0.06500
N953        N  0.98177713  0.50503498  0.95961328    -0.27900
N954        N  0.96960196  0.49484689  0.93808631    -0.35700
C955        C  0.97413859  0.47249031  0.93726082     0.00500
C956        C  0.98991114  0.46801962  0.95924729     0.06500
C957        C  0.99469878  0.48910767  0.97278780    -0.06600
H958        H  0.96802928  0.46077164  0.92000513     0.07200
H959        H  0.00843367  0.49329938  0.48943989     0.08400
Cu960      Cu  0.95165418  0.51146066  0.90530529     0.44200
Cu961      Cu  0.98154899  0.54077409  0.96716754     0.42000
Cu962      Cu  0.95559112  0.57177344  0.90461265     0.43900
N963        N  0.94196476  0.53021836  0.86851063    -0.35300
N964        N  0.94370814  0.55281803  0.86790592    -0.29500
C965        C  0.93871977  0.56008351  0.84006405    -0.05600
C966        C  0.93376808  0.54105792  0.82229687     0.06600
C967        C  0.93598419  0.52241416  0.84113795     0.00400
H968        H  0.93992136  0.57779571  0.83288512     0.08000
H969        H  0.93470993  0.50448536  0.83502708     0.07100
N970        N  0.96779556  0.58729810  0.94380130    -0.36700
N971        N  0.97703784  0.57654845  0.96671384    -0.28900
C972        C  0.98283058  0.59286003  0.48915699    -0.04100
C973        C  0.97657960  0.61437346  0.47892953     0.04500
C974        C  0.96759637  0.60985886  0.94973256     0.02600
H975        H  0.99135702  0.58918654  0.51004419     0.07700
H976        H  0.96191813  0.62249548  0.93392198     0.06500
C977        C  0.00801624  0.27981129  0.62776954    -0.06700
C978        C  0.99850263  0.26007673  0.64111503    -0.17800
C979        C  0.00055758  0.23816167  0.62802247     0.10500
C980        C  0.01000532  0.23598124  0.59772132    -0.06600
C981        C  0.02312997  0.25539658  0.58954775    -0.17900
C982        C  0.02160972  0.27711316  0.60236265     0.10500
S983        S  0.99013186  0.21478978  0.65189810    -0.32800
S984        S  0.04032284  0.30000232  0.58865706    -0.32800
H985        H  0.02204131  0.31343344  0.57971135     0.28500
H986        H  0.98878626  0.22667233  0.67923945     0.28500
H987        H  0.98988341  0.26189403  0.66248219     0.19100
H988        H  0.03690642  0.25311118  0.57520319     0.19100
C989        C  0.00602178  0.27822290  0.48813694    -0.06700
C990        C  0.01481219  0.27797919  0.51718729    -0.17800
C991        C  0.02574915  0.25835516  0.52689315     0.10500
C992        C  0.01694207  0.23644146  0.51793797    -0.06600
C993        C  0.01076024  0.23677063  0.98700025    -0.17900
C994        C  0.00460984  0.25675186  0.97165220     0.10500
S995        S  0.05663359  0.26342146  0.52522867    -0.32800
S996        S  0.99414153  0.25360262  0.93380131    -0.32800
H997        H  0.97989400  0.27250924  0.93500240     0.28500
H998        H  0.05742058  0.28740973  0.52844914     0.28500
H999        H  0.01947796  0.29426380  0.52750400     0.19100
H1000       H  0.01073426  0.22135316  0.97413684     0.19100
C1001       C  0.95107690  0.16595029  0.60133535    -0.06700
C1002       C  0.94713511  0.18912861  0.59672957    -0.17800
C1003       C  0.96559731  0.20549951  0.59271607     0.10500
C1004       C  0.98884574  0.19762943  0.58712551    -0.06600
C1005       C  0.99084974  0.17383160  0.59232181    -0.17900
C1006       C  0.97368397  0.16126784  0.60748776     0.10500
S1007       S  0.95719924  0.23509339  0.59428399    -0.32800
S1008       S  0.98086528  0.14196307  0.63683428    -0.32800
H1009       H  0.95796749  0.13674094  0.64514752     0.28500
H1010       H  0.93520883  0.23117719  0.60664587     0.28500
H1011       H  0.92959513  0.19415501  0.59402922     0.19100
H1012       H  0.00630491  0.16505007  0.58755485     0.19100
C1013       C  0.98771869  0.20398606  0.52299612    -0.06700
C1014       C  0.98459038  0.19052228  0.99635136    -0.17800
C1015       C  0.96509195  0.17589927  0.99152165     0.10500
C1016       C  0.94749342  0.17649353  0.51159065    -0.06600
C1017       C  0.94622923  0.19728987  0.52745943    -0.17900
C1018       C  0.96578081  0.21257351  0.52953039     0.10500
S1019       S  0.96562009  0.15480734  0.96208212    -0.32800
S1020       S  0.96048773  0.24260945  0.52510438    -0.32800
H1021       H  0.97939265  0.25027763  0.54211174     0.28500
H1022       H  0.94246443  0.14758363  0.96509121     0.28500
H1023       H  0.99867614  0.18791605  0.98127306     0.19100
H1024       H  0.93018812  0.20176113  0.53771587     0.19100
C1025       C  0.85531111  0.07546714  0.54461180    -0.06700
C1026       C  0.86729996  0.07918138  0.57167104    -0.17800
C1027       C  0.88478440  0.09612409  0.57489679     0.10500
C1028       C  0.89025449  0.11144344  0.55081456    -0.06600
C1029       C  0.87768841  0.10843237  0.52402737    -0.17900
C1030       C  0.86137035  0.09028194  0.52014137     0.10500
S1031       S  0.90132149  0.09589379  0.60927818    -0.32800
S1032       S  0.85324326  0.08370170  0.98099988    -0.32800
H1033       H  0.85806998  0.06031173  0.98290399     0.28500
H1034       H  0.89294701  0.07473015  0.62070924     0.28500
H1035       H  0.86415669  0.06743236  0.59011187     0.19100
H1036       H  0.88232730  0.11856162  0.50449020     0.19100
C1037       C  0.02476216  0.10561998  0.55601366    -0.06700
C1038       C  0.01042681  0.10404056  0.58144425    -0.17800
C1039       C  0.98635404  0.10226345  0.57835140     0.10500
C1040       C  0.97630270  0.10607440  0.55016121    -0.06600
C1041       C  0.99019087  0.10326399  0.52476737    -0.17900
C1042       C  0.01428319  0.10189984  0.52755885     0.10500
S1043       S  0.96913155  0.09242831  0.60969302    -0.32800
S1044       S  0.03097825  0.09891087  0.99289946    -0.32800
H1045       H  0.04784465  0.08630603  0.00715684     0.28500
H1046       H  0.95121288  0.08286778  0.59224661     0.28500
H1047       H  0.01793480  0.10428091  0.60365379     0.19100
H1048       H  0.98265107  0.10434122  0.50263898     0.19100
C1049       C  0.06583212  0.16656715  0.60536865    -0.06700
C1050       C  0.07300633  0.18677669  0.59093740    -0.17800
C1051       C  0.05803055  0.20515522  0.58769381     0.10500
C1052       C  0.03400847  0.20130124  0.59425702    -0.06600
C1053       C  0.03182707  0.18617486  0.61962483    -0.17900
C1054       C  0.04659554  0.16791748  0.62368606     0.10500
S1055       S  0.07231250  0.23300828  0.58618277    -0.32800
S1056       S  0.03887164  0.14521680  0.64956735    -0.32800
H1057       H  0.05987730  0.13422467  0.64771817     0.28500
H1058       H  0.09451315  0.22599193  0.57939910     0.28500
H1059       H  0.09014978  0.18782608  0.58176613     0.19100
H1060       H  0.01687497  0.18518592  0.63334403     0.19100
C1061       C  0.03194795  0.19620173  0.52626138    -0.06700
C1062       C  0.05448789  0.20460357  0.02445784    -0.17800
C1063       C  0.07249089  0.18913282  0.02063664     0.10500
C1064       C  0.06736399  0.16493400  0.51321153    -0.06600
C1065       C  0.04592607  0.16152449  0.50107644    -0.17900
C1066       C  0.02837832  0.17333092  0.51488173     0.10500
S1067       S  0.10179348  0.19948384  0.02350142    -0.32800
S1068       S  0.00643542  0.15420187  0.52705825    -0.32800
H1069       H  0.00380766  0.14361154  0.49891351     0.28500
H1070       H  0.11141183  0.17855687  0.01587184     0.28500
H1071       H  0.05915650  0.22189832  0.02934944     0.19100
H1072       H  0.04210979  0.14463547  0.49212627     0.19100
C1073       C  0.14423422  0.06421270  0.56865368    -0.06700
C1074       C  0.13574246  0.07114618  0.54058590    -0.17800
C1075       C  0.11887488  0.08761740  0.53776264     0.10500
C1076       C  0.11136542  0.09961426  0.56351864    -0.06600
C1077       C  0.11950818  0.09237147  0.59160786    -0.17900
C1078       C  0.13457720  0.07435235  0.59457349     0.10500
S1079       S  0.11284623  0.09614667  0.99866565    -0.32800
S1080       S  0.13793606  0.06377740  0.63230993    -0.32800
H1081       H  0.13313082  0.04073374  0.62478784     0.28500
H1082       H  0.08929988  0.09406422  0.00493822     0.28500
H1083       H  0.14091486  0.06214056  0.52067253     0.19100
H1084       H  0.11234131  0.09908894  0.61201381     0.19100
C1085       C  0.79742333  0.01641673  0.59068345    -0.06700
C1086       C  0.80165796  0.99508711  0.60313909    -0.17800
C1087       C  0.78340999  0.97942855  0.60804322     0.10500
C1088       C  0.76470575  0.97903670  0.58698924    -0.06600
C1089       C  0.75884867  0.00179208  0.57979504    -0.17900
C1090       C  0.77447305  0.02062222  0.58377188     0.10500
S1091       S  0.77816626  0.98017376  0.64810670    -0.32800
S1092       S  0.76486506  0.04933646  0.57922953    -0.32800
H1093       H  0.78324761  0.05977543  0.59503348     0.28500
H1094       H  0.75519708  0.97288923  0.64800194     0.28500
H1095       H  0.81823969  0.99211054  0.61289002     0.19100
H1096       H  0.74227468  0.00532714  0.57154955     0.19100
C1097       C  0.76082322  0.98289079  0.51716270    -0.06700
C1098       C  0.77976393  0.98214946  0.49598460    -0.17800
C1099       C  0.79141769  0.00151028  0.48465148     0.10500
C1100       C  0.78962517  0.02170924  0.50083818    -0.06600
C1101       C  0.76764037  0.02447402  0.51393709    -0.17900
C1102       C  0.74943968  0.00639168  0.01358026     0.10500
S1103       S  0.81156420  0.99936313  0.45448770    -0.32800
S1104       S  0.72585676  0.01133745  0.98861669    -0.32800
H1105       H  0.72643422  0.98979625  0.97455232     0.28500
H1106       H  0.80695787  0.97581201  0.44963646     0.28500
H1107       H  0.78035038  0.98156960  0.51974047     0.19100
H1108       H  0.76043890  0.04257988  0.01636108     0.19100
C1109       C  0.86550147  0.94175375  0.55920496    -0.06700
C1110       C  0.86710463  0.95005305  0.52948220    -0.17800
C1111       C  0.86316776  0.97323303  0.52227787     0.10500
C1112       C  0.85733618  0.98885117  0.54514890    -0.06600
C1113       C  0.85875773  0.98122997  0.57503675    -0.17900
C1114       C  0.86274600  0.95814550  0.58220470     0.10500
S1115       S  0.86282130  0.98218954  0.98169523    -0.32800
S1116       S  0.86118504  0.94986738  0.62113408    -0.32800
H1117       H  0.87231268  0.92907994  0.61751747     0.28500
H1118       H  0.86652755  0.00577248  0.98684959     0.28500
H1119       H  0.86882259  0.93788627  0.51134636     0.19100
H1120       H  0.85521327  0.99305178  0.59299404     0.19100
C1121       C  0.79796610  0.90200901  0.59994021    -0.06700
C1122       C  0.79658344  0.92314155  0.61506039    -0.17800
C1123       C  0.77529805  0.93398421  0.61687613     0.10500
C1124       C  0.76100265  0.93316823  0.59103913    -0.06600
C1125       C  0.75836740  0.90919410  0.58338007    -0.17900
C1126       C  0.77611694  0.89314206  0.59005259     0.10500
S1127       S  0.76108970  0.92710940  0.65207873    -0.32800
S1128       S  0.77264252  0.86414695  0.57678595    -0.32800
H1129       H  0.78715905  0.85530859  0.59873655     0.28500
H1130       H  0.73889948  0.93198490  0.64221035     0.28500
H1131       H  0.81138320  0.93043797  0.62665481     0.19100
H1132       H  0.74668857  0.90318295  0.56679706     0.19100
C1133       C  0.80317648  0.90810328  0.51345716    -0.06700
C1134       C  0.78832644  0.91143614  0.53533103    -0.17800
C1135       C  0.78452075  0.93466028  0.53958437     0.10500
C1136       C  0.76764932  0.94047492  0.52077337    -0.06600
C1137       C  0.77344673  0.93535994  0.98728478    -0.17900
C1138       C  0.79371739  0.92065257  0.98376714     0.10500
S1139       S  0.80855010  0.95522003  0.53712262    -0.32800
S1140       S  0.80913354  0.91991080  0.94901147    -0.32800
H1141       H  0.82515605  0.90428317  0.95931344     0.28500
H1142       H  0.80699800  0.96095363  0.56727391     0.28500
H1143       H  0.77355162  0.89978408  0.53226195     0.19100
H1144       H  0.76556619  0.94298901  0.96790701     0.19100
C1145       C  0.86365440  0.85437724  0.55379398    -0.06700
C1146       C  0.87232936  0.84706273  0.58150300    -0.17800
C1147       C  0.88816440  0.82972707  0.58376002     0.10500
C1148       C  0.89474919  0.81760228  0.55765913    -0.06600
C1149       C  0.88545589  0.82437341  0.53000758    -0.17900
C1150       C  0.87124063  0.84310355  0.52750966     0.10500
S1151       S  0.90191061  0.82622798  0.61978425    -0.32800
S1152       S  0.86662475  0.85320040  0.98728223    -0.32800
H1153       H  0.87379450  0.87582342  0.99442068     0.28500
H1154       H  0.88464151  0.83577628  0.63735094     0.28500
H1155       H  0.86821366  0.85651352  0.60156283     0.19100
H1156       H  0.89155523  0.81705071  0.50935809     0.19100
C1157       C  0.99309575  0.67949658  0.59782967    -0.06700
C1158       C  0.99869275  0.65910697  0.58341090    -0.17800
C1159       C  0.99331290  0.63718447  0.59495228     0.10500
C1160       C  0.98423195  0.63478452  0.62414820    -0.06600
C1161       C  0.98197932  0.65471972  0.64100861    -0.17900
C1162       C  0.98714210  0.67665466  0.62916037     0.10500
S1163       S  0.99841934  0.61321878  0.57086518    -0.32800
S1164       S  0.98482029  0.69985012  0.65573203    -0.32800
H1165       H  0.98761222  0.68703379  0.68215705     0.28500
H1166       H  0.97710059  0.60215726  0.57701129     0.28500
H1167       H  0.00943611  0.65995672  0.56447057     0.19100
H1168       H  0.97627881  0.65314843  0.66406090     0.19100
C1169       C  0.94820449  0.75772379  0.60292042    -0.06700
C1170       C  0.93875850  0.73521318  0.60119565    -0.17800
C1171       C  0.95357036  0.71611293  0.60042849     0.10500
C1172       C  0.97751852  0.72042167  0.59131672    -0.06600
C1173       C  0.98373390  0.74406301  0.59001116    -0.17900
C1174       C  0.97144950  0.75916604  0.60700079     0.10500
S1175       S  0.94021396  0.68851954  0.61017155    -0.32800
S1176       S  0.98488669  0.78341494  0.62472760    -0.32800
H1177       H  0.96451112  0.79140526  0.63725840     0.28500
H1178       H  0.91944351  0.69680673  0.62101991     0.28500
H1179       H  0.92034251  0.73261208  0.59981928     0.19100
H1180       H  0.99992003  0.75014532  0.58069085     0.19100
C1181       C  0.99377124  0.68056702  0.52031417    -0.06700
C1182       C  0.97554497  0.67831015  0.49910668    -0.17800
C1183       C  0.96739091  0.65574433  0.98826965     0.10500
C1184       C  0.98148500  0.63736799  0.49291383    -0.06600
C1185       C  0.00257307  0.64141238  0.50731149    -0.17900
C1186       C  0.01037707  0.66419424  0.51196375     0.10500
S1187       S  0.93983782  0.65383121  0.97012495    -0.32800
S1188       S  0.03027915  0.67212194  0.48194532    -0.32800
H1189       H  0.04266868  0.65189110  0.48290747     0.28500
H1190       H  0.93394482  0.63191557  0.98156454     0.28500
H1191       H  0.96536524  0.69170063  0.99143989     0.19100
H1192       H  0.01498037  0.62807029  0.50681608     0.19100
C1193       C  0.94763330  0.75644212  0.51398887    -0.06700
C1194       C  0.93939079  0.73551772  0.52586551    -0.17800
C1195       C  0.95423281  0.71736910  0.53187942     0.10500
C1196       C  0.97914434  0.72126738  0.53053927    -0.06600
C1197       C  0.98556846  0.74357526  0.51968343    -0.17900
C1198       C  0.97005221  0.75694497  0.00406618     0.10500
S1199       S  0.93876685  0.69070840  0.54044719    -0.32800
S1200       S  0.98087884  0.77815808  0.97808312    -0.32800
H1201       H  0.95927953  0.78651532  0.97074618     0.28500
H1202       H  0.95711599  0.67959292  0.55350290     0.28500
H1203       H  0.92151576  0.73380511  0.53238724     0.19100
H1204       H  0.00197941  0.75093530  0.02307395     0.19100
C1205       C  0.23592861  0.97334157  0.60071344    -0.06700
C1206       C  0.24348962  0.99598329  0.61027906    -0.17800
C1207       C  0.22743144  0.01400307  0.61472324     0.10500
C1208       C  0.20351680  0.00852728  0.61713043    -0.06600
C1209       C  0.19912130  0.98598691  0.62455456    -0.17900
C1210       C  0.21201853  0.96946113  0.60974094     0.10500
S1211       S  0.23803255  0.04325445  0.61438287    -0.32800
S1212       S  0.19327127  0.94771207  0.59639931    -0.32800
H1213       H  0.18157842  0.94456474  0.62371221     0.28500
H1214       H  0.21827483  0.05203303  0.62744427     0.28500
H1215       H  0.26132074  0.00081727  0.61138947     0.19100
H1216       H  0.18149367  0.98177263  0.63089681     0.19100
C1217       C  0.23835457  0.97523217  0.52946363    -0.06700
C1218       C  0.23722315  0.99029371  0.00277077    -0.17800
C1219       C  0.22026584  0.00885565  0.00242576     0.10500
C1220       C  0.20914047  0.01420271  0.53121467    -0.06600
C1221       C  0.21906078  0.00136815  0.55232447    -0.17900
C1222       C  0.21866620  0.97799853  0.54452609     0.10500
S1223       S  0.21327343  0.02274812  0.96792242    -0.32800
S1224       S  0.19354578  0.96669429  0.52348620    -0.32800
H1225       H  0.19248398  0.94582501  0.53680237     0.28500
H1226       H  0.19699792  0.03691766  0.98080074     0.28500
H1227       H  0.24776139  0.98814994  0.98312808     0.19100
H1228       H  0.23481230  0.00994458  0.55933528     0.19100
C1229       C  0.14794897  0.92850027  0.56387438    -0.06700
C1230       C  0.14527810  0.94154696  0.53761548    -0.17800
C1231       C  0.14041307  0.96513562  0.53884311     0.10500
C1232       C  0.13970454  0.97659194  0.56680446    -0.06600
C1233       C  0.13803901  0.96266541  0.59262650    -0.17900
C1234       C  0.14097214  0.93865586  0.59128887     0.10500
S1235       S  0.13891731  0.98028227  0.00269098    -0.32800
S1236       S  0.13782114  0.92285655  0.62604692    -0.32800
H1237       H  0.14877432  0.90293639  0.61762532     0.28500
H1238       H  0.12782153  0.99929874  0.01434696     0.28500
H1239       H  0.14858659  0.93378941  0.51603915     0.19100
H1240       H  0.13665697  0.97076759  0.61437648     0.19100
C1241       C  0.21371483  0.89187146  0.60416864    -0.06700
C1242       C  0.23426598  0.88979824  0.58860255    -0.17800
C1243       C  0.25164019  0.90726361  0.59066111     0.10500
C1244       C  0.24410890  0.92954134  0.59781356    -0.06600
C1245       C  0.23089750  0.92685844  0.62495378    -0.17900
C1246       C  0.21453621  0.90823624  0.62733958     0.10500
S1247       S  0.27564720  0.89632373  0.61109132    -0.32800
S1248       S  0.19442045  0.90699213  0.65797127    -0.32800
H1249       H  0.18417825  0.88572582  0.64973463     0.28500
H1250       H  0.27695191  0.87603446  0.59420398     0.28500
H1251       H  0.23805393  0.87295357  0.58060067     0.19100
H1252       H  0.23059559  0.94019630  0.64174616     0.19100
C1253       C  0.21052174  0.89600397  0.51304205    -0.06700
C1254       C  0.20876542  0.91698498  0.49847260    -0.17800
C1255       C  0.22682624  0.93357409  0.50058837     0.10500
C1256       C  0.24275003  0.93241848  0.52504098    -0.06600
C1257       C  0.24889264  0.90926828  0.52837136    -0.17900
C1258       C  0.23294135  0.89093605  0.52175391     0.10500
S1259       S  0.23458410  0.94642673  0.46516266    -0.32800
S1260       S  0.24185504  0.86176115  0.52298904    -0.32800
H1261       H  0.22224874  0.85242766  0.50859877     0.28500
H1262       H  0.25814114  0.94829434  0.47160820     0.28500
H1263       H  0.19377320  0.92025132  0.48507290     0.19100
H1264       H  0.26516591  0.90472123  0.53664194     0.19100
C1265       C  0.02735195  0.80897553  0.55459896    -0.06700
C1266       C  0.01745417  0.81762933  0.58085156    -0.17800
C1267       C  0.99477789  0.82522631  0.58057915     0.10500
C1268       C  0.98124826  0.82172050  0.55473990    -0.06600
C1269       C  0.99276955  0.81830563  0.52761737    -0.17900
C1270       C  0.01585207  0.81230826  0.52722105     0.10500
S1271       S  0.98358896  0.83886118  0.61350631    -0.32800
S1272       S  0.02963811  0.81095644  0.99187244    -0.32800
H1273       H  0.05159806  0.81726384  0.00239595     0.28500
H1274       H  0.96345501  0.84619417  0.59985782     0.28500
H1275       H  0.02701995  0.81778253  0.60165649     0.19100
H1276       H  0.98315752  0.81856625  0.50693083     0.19100
C1277       C  0.02026736  0.71384807  0.59982365    -0.06700
C1278       C  0.02044372  0.73217283  0.62154988    -0.17800
C1279       C  0.03869530  0.74852061  0.62203953     0.10500
C1280       C  0.05762534  0.74473335  0.60408138    -0.06600
C1281       C  0.06133280  0.72155506  0.59765182    -0.17900
C1282       C  0.04259500  0.70530356  0.59936672     0.10500
S1283       S  0.03752201  0.77384254  0.64486925    -0.32800
S1284       S  0.04827244  0.67793157  0.61612338    -0.32800
H1285       H  0.03253687  0.68036438  0.63966920     0.28500
H1286       H  0.06031225  0.78151098  0.63960307     0.28500
H1287       H  0.00577792  0.73632155  0.63480234     0.19100
H1288       H  0.07841435  0.71614929  0.59248026     0.19100
C1289       C  0.02288507  0.71221182  0.52763458    -0.06700
C1290       C  0.02358040  0.72313666  0.99878094    -0.17800
C1291       C  0.04107046  0.73980257  0.99340270     0.10500
C1292       C  0.05990539  0.74151957  0.51351050    -0.06600
C1293       C  0.06378761  0.72191475  0.53035903    -0.17900
C1294       C  0.04549615  0.70602924  0.53623745     0.10500
S1295       S  0.03936964  0.75838094  0.96144283    -0.32800
S1296       S  0.05327009  0.67719732  0.54610052    -0.32800
H1297       H  0.07700767  0.68168431  0.54892128     0.28500
H1298       H  0.06109949  0.76912713  0.96577010     0.28500
H1299       H  0.00939052  0.72175421  0.98318435     0.19100
H1300       H  0.08046587  0.71997201  0.54036003     0.19100
C1301       C  0.11271157  0.80565188  0.55595109    -0.06700
C1302       C  0.11983026  0.81498633  0.58371715    -0.17800
C1303       C  0.13608766  0.83324246  0.58588105     0.10500
C1304       C  0.14742874  0.84179222  0.55970371    -0.06600
C1305       C  0.14009110  0.83274002  0.53192110    -0.17900
C1306       C  0.12252890  0.81575873  0.52956579     0.10500
S1307       S  0.13909083  0.84724293  0.62193261    -0.32800
S1308       S  0.10446769  0.81582308  0.99436208    -0.32800
H1309       H  0.11704642  0.83289899  0.97845118     0.28500
H1310       H  0.13164098  0.82830208  0.63943047     0.28500
H1311       H  0.11082796  0.80964130  0.60391271     0.19100
H1312       H  0.14622744  0.84069721  0.51142649     0.19100
C1313       C  0.68160518  0.94278997  0.49211422    -0.06700
C1314       C  0.68447447  0.96168025  0.51082984    -0.17800
C1315       C  0.70549993  0.96743401  0.52477146     0.10500
C1316       C  0.72547974  0.95392956  0.51964004    -0.06600
C1317       C  0.72020705  0.93459285  0.99880221    -0.17900
C1318       C  0.69911259  0.92860089  0.98554930     0.10500
S1319       S  0.70428824  0.99236477  0.54850372    -0.32800
S1320       S  0.69720381  0.90177438  0.96546884    -0.32800
H1321       H  0.67510495  0.89549476  0.97596554     0.28500
H1322       H  0.68096508  0.98999149  0.55641803     0.28500
H1323       H  0.66997874  0.97246848  0.51410776     0.19100
H1324       H  0.73301236  0.92205982  0.99584216     0.19100
C1325       C  0.68003323  0.95933269  0.61553051    -0.06700
C1326       C  0.68451889  0.94215095  0.59525066    -0.17800
C1327       C  0.70629262  0.93971313  0.58249807     0.10500
C1328       C  0.72490304  0.95632731  0.58845875    -0.06600
C1329       C  0.71934366  0.97322573  0.61033268    -0.17900
C1330       C  0.69771873  0.97483733  0.62352927     0.10500
S1331       S  0.70740477  0.91414851  0.56024600    -0.32800
S1332       S  0.69376045  0.99745173  0.65042732    -0.32800
H1333       H  0.67031783  0.00006409  0.64476646     0.26900
H1334       H  0.68470563  0.91377972  0.54957639     0.28500
H1335       H  0.67087373  0.92952534  0.59073752     0.19100
H1336       H  0.73126627  0.98638255  0.61755485     0.19100
C1337       C  0.32279285  0.96328304  0.49465689    -0.06700
C1338       C  0.31807424  0.94441196  0.51303636    -0.17800
C1339       C  0.29784861  0.94205521  0.53039319     0.10500
C1340       C  0.27960072  0.95795945  0.52800192    -0.06600
C1341       C  0.28587994  0.97684672  0.01104274    -0.17900
C1342       C  0.30651969  0.97943055  0.99504642     0.10500
S1343       S  0.30080686  0.92216507  0.56015001    -0.32800
S1344       S  0.31205088  0.00649493  0.97625436    -0.32800
H1345       H  0.33522314  0.00849213  0.98478040     0.28500
H1346       H  0.31148951  0.90528745  0.54309159     0.28500
H1347       H  0.33121508  0.93190593  0.51533608     0.19100
H1348       H  0.27679532  0.99228314  0.01197099     0.19100
C1349       C  0.32298793  0.96212375  0.62309534    -0.06700
C1350       C  0.31767189  0.97532602  0.59819093    -0.17800
C1351       C  0.29511763  0.97633430  0.58740384     0.10500
C1352       C  0.27748090  0.96008920  0.59779862    -0.06600
C1353       C  0.28303433  0.94956731  0.62562770    -0.17900
C1354       C  0.30513045  0.94977578  0.63761722     0.10500
S1355       S  0.29096302  0.00287516  0.56780345    -0.32800
S1356       S  0.30930371  0.93345420  0.67150328    -0.32800
H1357       H  0.33169798  0.92715937  0.66446205     0.28500
H1358       H  0.26844008  0.99779573  0.56090285     0.28500
H1359       H  0.33084062  0.98700019  0.58914580     0.19100
H1360       H  0.27034619  0.94058122  0.63899566     0.19100
loop_ 
_geom_bond_atom_site_label_1 
_geom_bond_atom_site_label_2 
_geom_bond_distance 
_geom_bond_site_symmetry_2 
_ccdc_geom_bond_type 
N1            N2   1.323       .  A
N1            C5   1.351       .  A
N1           Cu9   2.096       .  S
N2            C3   1.340       .  A
N2           Cu8   2.063       .  S
C3            C4   1.378       .  A
C3            H6   1.082       .  S
C4            C5   1.388       .  A
C4           C52   1.468       .  S
C5            H7   1.082       .  S
Cu8          N11   2.062   1_565  S
Cu9          N19   2.096       .  S
Cu10         N12   2.065   1_565  S
Cu10         N18   2.067       .  S
N11          N12   1.319       .  A
N11          C15   1.344       .  A
N12          C13   1.344       .  A
C13          C14   1.385       .  A
C13          H16   1.082       .  S
C14          C15   1.383       .  A
C14          C38   1.471       .  S
C15          H17   1.082       .  S
N18          N19   1.324       .  A
N18          C22   1.341       .  A
N19          C20   1.350       .  A
C20          C21   1.386       .  A
C20          H23   1.082       .  S
C21          C22   1.378       .  A
C21         C669   1.476       .  S
C22          H24   1.082       .  S
N25          N26   1.325       .  A
N25          C29   1.355       .  A
N25         Cu33   2.123       .  S
N26          C27   1.342       .  A
N26         Cu32   2.070       .  S
C27          C28   1.379       .  A
C27          H30   1.082       .  S
C28          C29   1.393       .  A
C28          C76   1.477       .  S
C29         H711   1.082       .  S
H31         C709   1.082       .  S
Cu32         N35   2.070       .  S
Cu33         N43   2.123       .  S
Cu34         N36   2.062       .  S
Cu34         N42   2.063       .  S
N35          N36   1.320       .  A
N35          C39   1.346   1_565  A
N36          C37   1.343   1_565  A
C37          C38   1.382       .  A
C37          H40   1.082       .  S
C38          C39   1.386       .  A
C39          H41   1.082       .  S
N42          N43   1.323       .  A
N42          C46   1.344       .  A
N43         C724   1.352       .  A
C44         N723   1.352       .  A
C44          C45   1.394       .  A
C44          H47   1.082   1_556  S
C45         C726   1.383       .  A
C45         C657   1.494       .  S
C46         C725   1.384       .  A
C46          H48   1.081       .  S
N49          N50   1.323       .  A
N49          C53   1.349       .  A
N49         Cu57   2.094       .  S
N50          C51   1.341       .  A
N50         Cu56   2.067       .  S
C51          C52   1.380       .  A
C51          H54   1.082       .  S
C52          C53   1.388       .  A
C53          H55   1.082       .  S
Cu56         N59   2.067       .  S
Cu57         N67   2.094       .  S
Cu58         N60   2.057       .  S
Cu58         N66   2.056       .  S
N59          N60   1.320       .  A
N59          C63   1.345       .  A
N60          C61   1.341       .  A
C61          C62   1.382       .  A
C61          H64   1.082       .  S
C62          C63   1.384       .  A
C62          C86   1.468       .  S
C63          H65   1.082       .  S
N66          N67   1.323       .  A
N66          C70   1.341       .  A
N67          C68   1.349       .  A
C68          C69   1.387       .  A
C68          H71   1.082       .  S
C69          C70   1.377       .  A
C69         C645   1.473       .  S
C70          H72   1.082       .  S
N73          N74   1.324       .  A
N73          C77   1.353       .  A
N73         Cu81   2.114       .  S
N74          C75   1.343       .  A
N74         Cu80   2.074       .  S
C75          C76   1.382       .  A
C75          H78   1.082       .  S
C76          C77   1.392       .  A
C77         H759   1.082       .  S
H79         C757   1.082       .  S
Cu80         N83   2.073       .  S
Cu81         N91   2.113       .  S
Cu82         N84   2.049       .  S
Cu82         N90   2.049       .  S
N83          N84   1.319       .  A
N83          C87   1.346       .  A
N84          C85   1.341       .  A
C85          C86   1.381       .  A
C85          H88   1.082       .  S
C86          C87   1.385       .  A
C87          H89   1.082       .  S
N90          N91   1.322       .  A
N90          C94   1.341       .  A
N91         C772   1.352       .  A
C92         N771   1.352       .  A
C92          C93   1.394       .  A
C92          H95   1.082   1_556  S
C93         C774   1.381       .  A
C93         C633   1.489       .  S
C94         C773   1.378       .  A
C94          H96   1.082       .  S
C97          C98   1.560       .  S
C97         C103   1.540       .  S
C97         C101   1.551       .  S
C97         C621   1.540       .  S
C98         H105   1.084       .  S
C98          C99   1.367       .  D
C99         C100   1.542       .  S
C99         C600   1.491       .  S
C100        C104   1.541       .  S
C100        C102   1.539       .  S
C100        H106   1.107       .  S
C101        H107   1.086       .  S
C101        C102   1.368       .  D
C102        C612   1.482       .  S
C103        H108   1.087       .  S
C103        C104   1.353       .  D
C104        C585   1.496       .  S
C109        C110   1.563       .  S
C109        C115   1.551       .  S
C109        C113   1.558       .  S
C109        C624   1.541       .  S
C110        H117   1.085       .  S
C110        C111   1.367       .  D
C111        C112   1.524       .  S
C111        C573   1.500       .  S
C112        C116   1.559       .  S
C112        C114   1.533       .  S
C112        H118   1.075       .  S
C113        H119   1.083       .  S
C113        C114   1.364       .  D
C114        C561   1.497       .  S
C115        H120   1.086       .  S
C115        C116   1.361       .  D
C116        C549   1.528       .  S
C121        C537   1.627       .  S
C121        C576   1.635       .  S
C121        C660   1.629       .  S
C121        C122   1.835       .  S
C122        C525   1.684       .  S
C122        C564   1.653       .  S
C122        C672   1.606       .  S
C123        C501   1.648       .  S
C123        C516   1.641       .  S
C123        C609   1.607   1_655  S
C123        C124   1.808       .  S
C124        C477   1.584       .  S
C124        C492   1.621       .  S
C124        C597   1.651   1_655  S
C125        C126   1.579       .  S
C125        C131   1.561       .  S
C125        C129   1.568       .  S
C125        C465   1.545       .  S
C126        H133   1.084       .  S
C126        C127   1.368       .  D
C127        C128   1.523       .  S
C127        C441   1.556       .  S
C128        C132   1.497       .  S
C128        C130   1.591       .  S
C128        H134   1.064       .  S
C129        H135   1.083       .  S
C129        C130   1.375       .  D
C130        C453   1.521       .  S
C131        H136   1.086       .  S
C131        C132   1.357       .  D
C132        C429   1.513       .  S
C137        C138   1.568       .  S
C137        C143   1.554       .  S
C137        C141   1.564       .  S
C137        C468   1.541       .  S
C138        H145   1.084       .  S
C138        C139   1.372       .  D
C139        C140   1.519       .  S
C139        C513   1.488       .  S
C140        C144   1.516       .  S
C140        C142   1.540       .  S
C140        H146   1.102       .  S
C141        H147   1.085       .  S
C141        C142   1.369       .  D
C142        C489   1.496       .  S
C143        H148   1.086       .  S
C143        C144   1.352       .  D
C144        C588   1.496       .  S
C149        C417   1.689       .  S
C149        C456   1.609       .  S
C149        C636   1.595       .  S
C149        C150   1.811       .  S
C150        C408   1.638       .  S
C150        C444   1.684       .  S
C150        C648   1.611       .  S
C151        C152   1.558       .  S
C151        C157   1.552       .  S
C151        C155   1.563       .  S
C151        C396   1.546       .  S
C152        H159   1.082       .  S
C152        C153   1.365       .  D
C153        C154   1.546       .  S
C153        C384   1.498       .  S
C154        C158   1.539       .  S
C154        C156   1.517       .  S
C154        H160   1.094       .  S
C155        H161   1.085       .  S
C155        C156   1.369       .  D
C156        C369   1.486       .  S
C157        H162   1.086       .  S
C157        C158   1.361       .  D
C158        C357   1.515       .  S
C163        C164   1.575       .  S
C163        C169   1.563       .  S
C163        C167   1.576       .  S
C163        C393   1.543       .  S
C164        H171   1.084       .  S
C164        C165   1.371       .  D
C165        C166   1.544       .  S
C165        C528   1.541       .  S
C166        C170   1.500       .  S
C166        C168   1.574       .  S
C166        H172   1.076   1_545  S
C167        H173   1.085       .  S
C167        C168   1.374       .  D
C168        C540   1.535       .  S
C169        H174   1.086       .  S
C169        C170   1.354       .  D
C170        C552   1.520   1_545  S
C175        C176   1.566       .  S
C175        C181   1.558       .  S
C175        C179   1.563       .  S
C175        C345   1.548       .  S
C176        H183   1.083       .  S
C176        C177   1.370       .  D
C177        C178   1.529       .  S
C177        C420   1.503   1_554  S
C178        C182   1.532       .  S
C178        C180   1.510       .  S
C178        H184   1.073   1_545  S
C179        H185   1.085       .  S
C179        C180   1.366       .  D
C180        C405   1.472       .  S
C181        H186   1.086       .  S
C181        C182   1.362       .  D
C182        C432   1.517   1_545  S
C187        C188   1.563       .  S
C187        C193   1.555       .  S
C187        C191   1.572       .  S
C187        C348   1.545       .  S
C188        H195   1.085       .  S
C188        C189   1.366       .  D
C189        C190   1.517       .  S
C189        C321   1.487       .  S
C190        C194   1.531       .  S
C190        C192   1.521       .  S
C190        H196   1.062       .  S
C191        H197   1.084       .  S
C191        C192   1.375       .  D
C192        C336   1.508       .  S
C193        H198   1.086       .  S
C193        C194   1.356       .  D
C194        C360   1.511       .  S
C199        C312   1.634       .  S
C199        C333   1.648   1_455  S
C199        C381   1.617       .  S
C199        C200   1.807       .  S
C200        C300   1.608       .  S
C200        C324   1.617   1_455  S
C200        C372   1.658       .  S
N201        N202   1.324       .  A
N201        C205   1.349   1_455  A
N201       Cu209   2.097       .  S
N202        C203   1.343       .  A
N202       Cu208   2.069       .  S
C203        C204   1.379       .  A
C203        H206   1.082       .  S
C204        C205   1.386   1_455  A
C204        C252   1.468   1_455  S
C205        H207   1.082       .  S
Cu208       N211   2.069       .  S
Cu209       N219   2.097       .  S
Cu210       N212   2.062       .  S
Cu210       N218   2.063       .  S
N211        N212   1.320       .  A
N211        C215   1.345       .  A
N212        C213   1.342       .  A
C213        C214   1.383       .  A
C213        H216   1.082       .  S
C214        C215   1.384       .  A
C214        C238   1.471       .  S
C215        H217   1.082       .  S
N218        N219   1.323       .  A
N218        C222   1.343       .  A
N219        C220   1.349       .  A
C220        C221   1.389       .  A
C220        H223   1.082   1_455  S
C221        C222   1.379       .  A
C221        C297   1.480       .  S
C222        H224   1.082       .  S
N225        N226   1.325       .  A
N225        C229   1.351   1_455  A
N225       Cu233   2.111       .  S
N226        C227   1.345       .  A
N226       Cu232   2.074       .  S
C227        C228   1.381       .  A
C227        H230   1.082       .  S
C228        C229   1.390   1_455  A
C228        C276   1.475   1_455  S
C229        H911   1.082       .  S
H231        C909   1.082       .  S
Cu232       N235   2.072       .  S
Cu233       N243   2.110       .  S
Cu234       N236   2.053       .  S
Cu234       N242   2.054       .  S
N235        N236   1.319       .  A
N235        C239   1.346       .  A
N236        C237   1.341       .  A
C237        C238   1.382       .  A
C237        H240   1.082       .  S
C238        C239   1.386       .  A
C239        H241   1.082       .  S
N242        N243   1.322       .  A
N242        C246   1.340       .  A
N243        C924   1.352       .  A
C244        N923   1.352       .  A
C244        C245   1.394       .  A
C244        H247   1.082   1_456  S
C245        C926   1.382       .  A
C245        C309   1.489       .  S
C246        C925   1.380       .  A
C246        H248   1.082       .  S
N249        N250   1.323       .  A
N249        C253   1.348       .  A
N249       Cu257   2.089       .  S
N250        C251   1.344       .  A
N250       Cu256   2.072       .  S
C251        C252   1.381       .  A
C251        H254   1.082       .  S
C252        C253   1.385       .  A
C253        H255   1.082   1_655  S
Cu256       N259   2.072       .  S
Cu257       N267   2.089       .  S
Cu258       N260   2.078       .  S
Cu258       N266   2.078       .  S
N259        N260   1.321       .  A
N259        C263   1.346       .  A
N260        C261   1.346       .  A
C261        C262   1.385       .  A
C261        H264   1.082       .  S
C262        C263   1.384       .  A
C262        C286   1.475       .  S
C263        H265   1.082       .  S
N266        N267   1.320       .  A
N266        C270   1.344       .  A
N267        C268   1.347       .  A
C268        C269   1.394       .  A
C268        H271   1.079   1_655  S
C269        C270   1.391       .  A
C269        C480   1.502       .  S
C270        H272   1.082       .  S
N273        N274   1.325       .  A
N273        C277   1.353       .  A
N273       Cu281   2.119       .  S
N274        C275   1.343       .  A
N274       Cu280   2.068       .  S
C275        C276   1.378       .  A
C275        H278   1.082       .  S
C276        C277   1.391       .  A
C277        H959   1.082   1_655  S
H279        C957   1.082   1_455  S
Cu280       N283   2.069       .  S
Cu281       N291   2.118       .  S
Cu282       N284   2.073       .  S
Cu282       N290   2.073       .  S
N283        N284   1.320       .  A
N283        C287   1.345       .  A
N284        C285   1.345       .  A
C285        C286   1.385       .  A
C285        H288   1.082       .  S
C286        C287   1.385       .  A
C287        H289   1.082       .  S
N290        N291   1.323       .  A
N290        C294   1.343       .  A
N291        C972   1.354       .  A
C292        N971   1.353       .  A
C292        C293   1.394       .  A
C292        H295   1.081   1_556  S
C293        C974   1.386       .  A
C293        C504   1.499       .  S
C294        C973   1.385       .  A
C294        H296   1.080       .  S
C297        C298   1.392   1_455  A
C297        C302   1.393       .  A
C298        C299   1.415       .  A
C298        H307   1.083       .  S
C299        C300   1.463   1_655  A
C299        S303   1.814       .  S
C300        C301   1.390       .  A
C301        C302   1.397       .  A
C301        H308   1.033       .  S
C302        S304   1.800       .  S
S303        H306   1.407       .  S
S304        H305   1.405       .  S
C309        C310   1.396   1_556  A
C309        C994   1.414       .  A
C310        C311   1.401       .  A
C310        H319   1.083       .  S
C311        C312   1.420       .  A
C311        S315   1.820       .  S
C312        C993   1.427   1_554  A
C313        C314   1.408       .  A
C313        C992   1.427       .  A
C313        H320   1.067       .  S
C314        C989   1.412       .  A
C314        S316   1.802   1_455  S
S315        H318   1.408       .  S
S316        H317   1.408       .  S
C321        C322   1.395       .  A
C321        C326   1.386       .  A
C322        C323   1.423       .  A
C322        H331   1.083       .  S
C323        C324   1.469       .  A
C323        S327   1.813       .  S
C324        C325   1.416       .  A
C325        C326   1.392       .  A
C325        H332   1.075   1_655  S
C326        S328   1.785       .  S
S327        H330   1.408       .  S
S328        H329   1.409       .  S
C333        C338   1.422       .  A
C333       C1014   1.440   1_554  A
C334        C335   1.414       .  A
C334       C1013   1.441       .  A
C334        H343   1.077       .  S
C335       C1016   1.399       .  A
C335        S339   1.801       .  S
C336        C337   1.411       .  A
C336       C1015   1.399   1_554  A
C337        C338   1.426       .  A
C337        H344   1.082       .  S
C338        S340   1.802       .  S
S339        H342   1.407       .  S
S340        H341   1.400       .  S
C345        C346   1.409       .  A
C345        C350   1.425       .  A
C346        C347   1.403       .  A
C346        H355   1.081       .  S
C347        C348   1.424       .  A
C347        S351   1.812       .  S
C348        C349   1.410       .  A
C349        C350   1.409       .  A
C349        H356   1.081       .  S
C350       S1032   1.801   1_554  S
S351        H354   1.407       .  S
S352       C1030   1.800       .  S
S352        H353   1.407       .  S
C357        C358   1.408       .  A
C357        C362   1.421       .  A
C358        C359   1.414   1_455  A
C358        H367   1.083       .  S
C359        C360   1.408       .  A
C359        S363   1.801       .  S
C360        C361   1.405       .  A
C361        C362   1.418   1_655  A
C361        H368   1.083       .  S
C362       S1044   1.797   1_554  S
S363        H366   1.404       .  S
S364       C1042   1.801       .  S
S364        H365   1.401       .  S
C369        C370   1.393       .  A
C369        C374   1.392       .  A
C370        C371   1.418       .  A
C370        H379   1.080       .  S
C371        C372   1.443       .  A
C371        S375   1.802       .  S
C372        C373   1.437       .  A
C373        C374   1.408       .  A
C373        H380   1.064       .  S
C374        S376   1.799       .  S
S375        H378   1.406       .  S
S376        H377   1.408       .  S
C381        C386   1.437       .  A
C381       C1062   1.422       .  A
C382        C383   1.422       .  A
C382       C1061   1.423       .  A
C382        H391   1.057       .  S
C383       C1064   1.405       .  A
C383        S387   1.797       .  S
C384        C385   1.372       .  A
C384       C1063   1.407       .  A
C385        C386   1.397       .  A
C385        H392   1.081   1_554  S
C386        S388   1.753       .  S
S387        H390   1.407       .  S
S388        H389   1.405   1_554  S
C393        C394   1.409       .  A
C393        C398   1.423       .  A
C394        C395   1.404       .  A
C394        H403   1.081       .  S
C395        C396   1.426       .  A
C395       S1079   1.804   1_554  S
C396        C397   1.409       .  A
C397        C398   1.407       .  A
C397        H404   1.080       .  S
C398        S400   1.810       .  S
S399       C1075   1.812       .  S
S399        H402   1.406       .  S
S400        H401   1.406       .  S
C405        C406   1.392   1_545  A
C405        C410   1.405       .  A
C406        C407   1.393       .  A
C406        H415   1.081       .  S
C407        C408   1.443       .  A
C407        S411   1.813       .  S
C408        C409   1.420   1_565  A
C409        C410   1.412       .  A
C409        H416   1.067       .  S
C410        S412   1.799       .  S
S411        H414   1.391       .  S
S412        H413   1.405       .  S
C417        C418   1.451   1_554  A
C417       C1102   1.462   1_565  A
C418        C419   1.392   1_565  A
C418        H427   1.063   1_556  S
C419        C420   1.390       .  A
C419        S423   1.792       .  S
C420        C421   1.425   1_556  A
C421       C1102   1.439       .  A
C421       H1108   1.081       .  S
C422       C1097   1.463   1_545  A
C422       C1101   1.437       .  A
C422        S424   1.804       .  S
S423        H426   1.408   1_545  S
S424        H425   1.408   1_545  S
H428       C1101   1.081       .  S
C429        C430   1.412       .  A
C429        C434   1.417       .  A
C430        C431   1.418       .  A
C430        H439   1.084       .  S
C431        C432   1.417       .  A
C431       S1115   1.799   1_554  S
C432        C433   1.407       .  A
C433        C434   1.413       .  A
C433        H440   1.082       .  S
C434        S436   1.801       .  S
S435       C1111   1.799       .  S
S435        H438   1.405   1_565  S
S436        H437   1.407       .  S
C441        C442   1.411       .  A
C441        C446   1.432       .  A
C442        C443   1.417       .  A
C442        H451   1.082       .  S
C443        C444   1.422       .  A
C443        S447   1.811       .  S
C444        C445   1.442       .  A
C445        C446   1.455       .  A
C445        H452   1.062       .  S
C446        S448   1.798       .  S
S447        H450   1.407       .  S
S448        H449   1.405       .  S
C453        C454   1.322       .  A
C453       C1138   1.461   1_554  A
C454        C455   1.398       .  A
C454        H463   1.088       .  S
C455        C456   1.348       .  A
C455        S459   1.821       .  S
C456       C1137   1.493   1_554  A
C457        C458   1.493       .  A
C457       C1136   1.491       .  A
C457        H464   1.082       .  S
C458       C1133   1.459       .  A
C458        S460   1.791       .  S
S459        H462   1.391       .  S
S460        H461   1.408       .  S
C465        C466   1.409       .  A
C465        C470   1.423       .  A
C466        C467   1.404       .  A
C466        H475   1.082       .  S
C467        C468   1.423       .  A
C467        S471   1.813       .  S
C468        C469   1.411       .  A
C469        C470   1.406       .  A
C469        H476   1.080       .  S
C470       S1152   1.800   1_554  S
S471        H474   1.406       .  S
S472       C1150   1.801       .  S
S472        H473   1.408       .  S
C477        C478   1.403       .  A
C477        C482   1.445       .  A
C478        C479   1.403       .  A
C478        H487   1.053   1_655  S
C479        C480   1.410       .  A
C479        S483   1.797       .  S
C480        C481   1.398       .  A
C481        C482   1.407       .  A
C481        H488   1.081       .  S
C482        S484   1.809       .  S
S483        H486   1.407       .  S
S484        H485   1.407       .  S
C489        C490   1.411       .  A
C489        C494   1.370       .  A
C490        C491   1.440       .  A
C490        H499   1.082       .  S
C491        C492   1.467       .  A
C491        S495   1.814       .  S
C492        C493   1.416       .  A
C493        C494   1.384       .  A
C493        H500   1.079       .  S
C494        S496   1.779       .  S
S495        H498   1.407       .  S
S496        H497   1.409       .  S
C501        C502   1.426   1_554  A
C501        C506   1.439   1_655  A
C502       C1183   1.411       .  A
C502       H1191   1.074       .  S
C503       C1182   1.411       .  A
C503       C1184   1.420       .  A
C503        S507   1.801       .  S
C504        C505   1.401   1_656  A
C504       C1183   1.417       .  A
C505        C506   1.407       .  A
C505        H512   1.084       .  S
C506        S508   1.818   1_554  S
S507        H510   1.406       .  S
S508        H509   1.408       .  S
H511       C1182   1.075       .  S
C513        C514   1.400       .  A
C513       C1198   1.386       .  A
C514        C515   1.420       .  A
C514        H523   1.084       .  S
C515        C516   1.465       .  A
C515        S519   1.811       .  S
C516        C517   1.425       .  A
C517       C1198   1.392       .  A
C517       H1204   1.075   1_655  S
C518       C1193   1.385       .  A
C518       C1197   1.392       .  A
C518        S520   1.791       .  S
S519        H522   1.400       .  S
S520        H521   1.408       .  S
H524       C1197   1.075   1_455  S
C525        C526   1.443       .  A
C525        C530   1.461       .  A
C526        C527   1.449   1_565  A
C526        H535   1.070   1_565  S
C527        C528   1.424       .  A
C527        S531   1.794       .  S
C528        C529   1.371   1_545  A
C529        C530   1.410       .  A
C529        H536   1.086       .  S
C530        S532   1.750       .  S
S531        H534   1.405       .  S
S532        H533   1.402       .  S
C537        C542   1.345       .  A
C537       C1218   1.503       .  A
C538        C539   1.495   1_565  A
C538       C1217   1.503       .  A
C538        H547   1.079       .  S
C539       C1220   1.461       .  A
C539        S543   1.792       .  S
C540        C541   1.347       .  A
C540       C1219   1.461       .  A
C541        C542   1.408   1_545  A
C541        H548   1.077       .  S
C542        S544   1.843       .  S
S543        H546   1.405       .  S
S544        H545   1.355       .  S
C549        C550   1.407       .  A
C549        C554   1.422       .  A
C550        C551   1.419       .  A
C550        H559   1.083       .  S
C551        C552   1.418       .  A
C551       S1235   1.803       .  S
C552        C553   1.410       .  A
C553        C554   1.420       .  A
C553        H560   1.083       .  S
C554        S556   1.801       .  S
S555       C1231   1.802       .  S
S555        H558   1.406       .  S
S556        H557   1.402       .  S
C561        C562   1.394       .  A
C561        C566   1.407       .  A
C562        C563   1.414       .  A
C562        H571   1.077       .  S
C563        C564   1.425       .  A
C563        S567   1.810       .  S
C564        C565   1.438       .  A
C565        C566   1.424       .  A
C565        H572   1.081       .  S
C566        S568   1.798       .  S
S567        H570   1.409       .  S
S568        H569   1.408       .  S
C573        C574   1.393   1_554  A
C573        C578   1.408       .  A
C574        C575   1.409   1_556  A
C574        H583   1.083       .  S
C575        C576   1.437       .  A
C575        S579   1.797   1_554  S
C576        C577   1.419       .  A
C577        C578   1.425       .  A
C577        H584   1.062       .  S
C578        S580   1.800       .  S
S579        H582   1.406       .  S
S580        H581   1.406       .  S
C585        C586   1.406       .  A
C585        C590   1.411       .  A
C586        C587   1.412   1_455  A
C586        H595   1.083       .  S
C587        C588   1.408       .  A
C587        S591   1.803       .  S
C588        C589   1.400       .  A
C589        C590   1.406   1_655  A
C589        H596   1.081       .  S
C590       S1272   1.799   1_554  S
S591        H594   1.406       .  S
S592       C1270   1.799       .  S
S592        H593   1.403       .  S
C597        C598   1.444       .  A
C597        C602   1.414       .  A
C598        C599   1.404       .  A
C598        H607   1.075       .  S
C599        C600   1.388       .  A
C599        S603   1.800       .  S
C600        C601   1.407       .  A
C601        C602   1.422       .  A
C601        H608   1.082       .  S
C602        S604   1.804       .  S
S603        H606   1.407       .  S
S604        H605   1.404       .  S
C609        C614   1.434       .  A
C609       C1290   1.428   1_554  A
C610        C611   1.404       .  A
C610       C1289   1.428       .  A
C610        H619   1.083       .  S
C611       C1292   1.399       .  A
C611        S615   1.794       .  S
C612        C613   1.395       .  A
C612       C1291   1.399   1_554  A
C613        C614   1.413       .  A
C613        H620   1.081       .  S
C614        S616   1.813       .  S
S615        H618   1.408       .  S
S616        H617   1.407       .  S
C621        C622   1.408       .  A
C621        C626   1.424       .  A
C622        C623   1.401       .  A
C622        H631   1.079       .  S
C623        C624   1.424       .  A
C623        S627   1.804       .  S
C624        C625   1.409       .  A
C625        C626   1.406       .  A
C625        H632   1.080       .  S
C626       S1308   1.813   1_554  S
S627        H630   1.405       .  S
S628       C1306   1.810       .  S
S628        H629   1.407       .  S
C633        C634   1.392   1_556  A
C633       C1318   1.405       .  A
C634        C635   1.410       .  A
C634        H643   1.083       .  S
C635        C636   1.449       .  A
C635        S639   1.806       .  S
C636       C1317   1.428   1_554  A
C637        C638   1.400       .  A
C637       C1316   1.428       .  A
C637        H644   1.073       .  S
C638       C1313   1.405       .  A
C638        S640   1.805       .  S
S639        H642   1.408       .  S
S640        H641   1.407       .  S
C645        C646   1.385       .  A
C645        C650   1.394       .  A
C646        C647   1.407       .  A
C646        H655   1.084       .  S
C647        C648   1.453       .  A
C647        S651   1.795       .  S
C648        C649   1.435       .  A
C649        C650   1.397       .  A
C649        H656   1.067       .  S
C650        S652   1.806       .  S
S651        H654   1.408       .  S
S652        H653   1.406   1_565  S
C657        C658   1.389   1_556  A
C657       C1342   1.402       .  A
C658        C659   1.412       .  A
C658        H667   1.084       .  S
C659        C660   1.444       .  A
C659        S663   1.777       .  S
C660       C1341   1.429       .  A
C661        C662   1.403       .  A
C661       C1340   1.429       .  A
C661        H668   1.064       .  S
C662       C1337   1.404       .  A
C662        S664   1.805   1_565  S
S663        H666   1.409       .  S
S664        H665   1.407       .  S
C669        C670   1.391       .  A
C669        C674   1.400       .  A
C670        C671   1.405       .  A
C670        H679   1.085       .  S
C671        C672   1.449       .  A
C671        S675   1.802   1_565  S
C672        C673   1.426       .  A
C673        C674   1.396       .  A
C673        H680   1.071       .  S
C674        S676   1.806       .  S
S675        H678   1.371   1_545  S
S676        H677   1.406       .  S
N681        N682   1.325       .  A
N681        C685   1.351       .  A
N681       Cu689   2.100       .  S
N682        C683   1.341       .  A
N682       Cu688   2.069       .  S
C683        C684   1.378       .  A
C683        H686   1.082       .  S
C684        C685   1.387       .  A
C684        C732   1.468       .  S
C685        H687   1.082       .  S
Cu688       N691   2.069   1_565  S
Cu689       N699   2.099       .  S
Cu690       N692   2.055       .  S
Cu690       N698   2.055       .  S
N691        N692   1.319   1_545  A
N691        C695   1.347       .  A
N692        C693   1.341       .  A
C693        C694   1.381   1_565  A
C693        H696   1.082       .  S
C694        C695   1.386       .  A
C694        C718   1.470       .  S
C695        H697   1.082       .  S
N698        N699   1.322       .  A
N698        C702   1.341       .  A
N699        C700   1.351       .  A
C700        C701   1.390       .  A
C700        H703   1.082       .  S
C701        C702   1.379       .  A
C701       C1349   1.480       .  S
C702        H704   1.082       .  S
N705        N706   1.324       .  A
N705        C709   1.354       .  A
N705       Cu713   2.118       .  S
N706        C707   1.341       .  A
N706       Cu712   2.062       .  S
C707        C708   1.378       .  A
C707        H710   1.082       .  S
C708        C709   1.392       .  A
C708        C756   1.476       .  S
Cu712       N715   2.062       .  S
Cu713       N723   2.119       .  S
Cu714       N716   2.067       .  S
Cu714       N722   2.068       .  S
N715        N716   1.320       .  A
N715        C719   1.346   1_565  A
N716        C717   1.342       .  A
C717        C718   1.384   1_565  A
C717        H720   1.082       .  S
C718        C719   1.383       .  A
C719        H721   1.082       .  S
N722        N723   1.324       .  A
N722        C726   1.345       .  A
C724        C725   1.397       .  A
C724        H727   1.082       .  S
C725       C1337   1.499       .  S
C726        H728   1.082       .  S
N729        N730   1.323       .  A
N729        C733   1.349       .  A
N729       Cu737   2.090       .  S
N730        C731   1.341       .  A
N730       Cu736   2.070       .  S
C731        C732   1.381       .  A
C731        H734   1.082       .  S
C732        C733   1.387       .  A
C733        H735   1.082       .  S
Cu736       N739   2.069       .  S
Cu737       N747   2.090       .  S
Cu738       N740   2.057       .  S
Cu738       N746   2.057       .  S
N739        N740   1.320       .  A
N739        C743   1.345       .  A
N740        C741   1.342       .  A
C741        C742   1.383       .  A
C741        H744   1.082       .  S
C742        C743   1.384       .  A
C742        C766   1.470       .  S
C743        H745   1.082       .  S
N746        N747   1.323       .  A
N746        C750   1.341       .  A
N747        C748   1.348       .  A
C748        C749   1.387       .  A
C748        H751   1.082       .  S
C749        C750   1.376       .  A
C749       C1325   1.471       .  S
C750        H752   1.082       .  S
N753        N754   1.324       .  A
N753        C757   1.352       .  A
N753       Cu761   2.112       .  S
N754        C755   1.343       .  A
N754       Cu760   2.074       .  S
C755        C756   1.382       .  A
C755        H758   1.082       .  S
C756        C757   1.391       .  A
Cu760       N763   2.073       .  S
Cu761       N771   2.111       .  S
Cu762       N764   2.058       .  S
Cu762       N770   2.058       .  S
N763        N764   1.320       .  A
N763        C767   1.346       .  A
N764        C765   1.342       .  A
C765        C766   1.382       .  A
C765        H768   1.082       .  S
C766        C767   1.385       .  A
C767        H769   1.082       .  S
N770        N771   1.322       .  A
N770        C774   1.342       .  A
C772        C773   1.394       .  A
C772        H775   1.082       .  S
C773       C1313   1.486       .  S
C774        H776   1.082       .  S
C777        C778   1.558       .  S
C777        C783   1.538       .  S
C777        C781   1.552       .  S
C777       C1301   1.539       .  S
C778        H785   1.085       .  S
C778        C779   1.368       .  D
C779        C780   1.545       .  S
C779       C1280   1.492       .  S
C780        C784   1.542       .  S
C780        C782   1.538       .  S
C780        H786   1.107       .  S
C781        H787   1.085       .  S
C781        C782   1.367       .  D
C782       C1292   1.482       .  S
C783        H788   1.087       .  S
C783        C784   1.353       .  D
C784       C1265   1.495       .  S
C789        C790   1.565       .  S
C789        C795   1.549       .  S
C789        C793   1.558       .  S
C789       C1304   1.540       .  S
C790        H797   1.084       .  S
C790        C791   1.365       .  D
C791        C792   1.522       .  S
C791       C1253   1.499       .  S
C792        C796   1.559       .  S
C792        C794   1.533       .  S
C792        H798   1.076       .  S
C793        H799   1.085       .  S
C793        C794   1.366       .  D
C794       C1241   1.499       .  S
C795        H800   1.086       .  S
C795        C796   1.360       .  D
C796       C1229   1.524       .  S
C801       C1217   1.627       .  S
C801       C1256   1.633       .  S
C801       C1340   1.629       .  S
C801        C802   1.836       .  S
C802       C1205   1.684       .  S
C802       C1244   1.655       .  S
C802       C1352   1.607       .  S
C803       C1181   1.645       .  S
C803       C1196   1.640       .  S
C803       C1289   1.606   1_655  S
C803        C804   1.808       .  S
C804       C1157   1.583       .  S
C804       C1172   1.617       .  S
C804       C1277   1.650   1_655  S
C805        C806   1.578       .  S
C805        C811   1.560       .  S
C805        C809   1.562       .  S
C805       C1145   1.536       .  S
C806        H813   1.084       .  S
C806        C807   1.368       .  D
C807        C808   1.523       .  S
C807       C1121   1.555       .  S
C808        C812   1.497       .  S
C808        C810   1.592       .  S
C808        H814   1.062       .  S
C809        H815   1.083       .  S
C809        C810   1.371       .  D
C810       C1133   1.516       .  S
C811        H816   1.086       .  S
C811        C812   1.356       .  D
C812       C1109   1.512       .  S
C817        C818   1.566       .  S
C817        C823   1.554       .  S
C817        C821   1.558       .  S
C817       C1148   1.533       .  S
C818        H825   1.085       .  S
C818        C819   1.370       .  D
C819        C820   1.520       .  S
C819       C1193   1.486       .  S
C820        C824   1.516       .  S
C820        C822   1.540       .  S
C820        H826   1.102       .  S
C821        H827   1.085       .  S
C821        C822   1.364       .  D
C822       C1169   1.489       .  S
C823        H828   1.086       .  S
C823        C824   1.352       .  D
C824       C1268   1.495       .  S
C829       C1097   1.687       .  S
C829       C1136   1.608       .  S
C829       C1316   1.595       .  S
C829        C830   1.811       .  S
C830       C1088   1.642       .  S
C830       C1124   1.690       .  S
C830       C1328   1.607       .  S
C831        C832   1.559       .  S
C831        C837   1.553       .  S
C831        C835   1.562       .  S
C831       C1076   1.544       .  S
C832        H839   1.084       .  S
C832        C833   1.367       .  D
C833        C834   1.544       .  S
C833       C1064   1.498       .  S
C834        C838   1.537       .  S
C834        C836   1.515       .  S
C834        H840   1.092       .  S
C835        H841   1.085       .  S
C835        C836   1.366       .  D
C836       C1049   1.483       .  S
C837        H842   1.086       .  S
C837        C838   1.361       .  D
C838       C1037   1.513       .  S
C843        C844   1.576       .  S
C843        C849   1.561       .  S
C843        C847   1.574       .  S
C843       C1073   1.541       .  S
C844        H851   1.082       .  S
C844        C845   1.371       .  D
C845        C846   1.543       .  S
C845       C1208   1.541       .  S
C846        C850   1.501       .  S
C846        C848   1.575       .  S
C846        H852   1.075   1_545  S
C847        H853   1.085       .  S
C847        C848   1.374       .  D
C848       C1220   1.535       .  S
C849        H854   1.086       .  S
C849        C850   1.352       .  D
C850       C1232   1.518   1_545  S
C855        C856   1.564       .  S
C855        C861   1.559       .  S
C855        C859   1.563       .  S
C855       C1025   1.550       .  S
C856        H863   1.082       .  S
C856        C857   1.368       .  D
C857        C858   1.528       .  S
C857       C1100   1.500       .  S
C858        C862   1.531       .  S
C858        C860   1.510       .  S
C858        H864   1.071   1_545  S
C859        H865   1.085       .  S
C859        C860   1.366       .  D
C860       C1085   1.475       .  S
C861        H866   1.086       .  S
C861        C862   1.363       .  D
C862       C1112   1.517   1_545  S
C867        C868   1.564       .  S
C867        C873   1.555       .  S
C867        C871   1.573       .  S
C867       C1028   1.545       .  S
C868        H875   1.085       .  S
C868        C869   1.367       .  D
C869        C870   1.517       .  S
C869       C1001   1.489       .  S
C870        C874   1.531       .  S
C870        C872   1.521       .  S
C870        H876   1.061       .  S
C871        H877   1.084       .  S
C871        C872   1.375       .  D
C872       C1016   1.508       .  S
C873        H878   1.086       .  S
C873        C874   1.355       .  D
C874       C1040   1.511       .  S
C879        C992   1.633       .  S
C879       C1013   1.650   1_455  S
C879       C1061   1.622       .  S
C879        C880   1.808       .  S
C880        C980   1.612       .  S
C880       C1004   1.620   1_455  S
C880       C1052   1.655       .  S
N881        N882   1.324       .  A
N881        C885   1.349   1_455  A
N881       Cu889   2.099       .  S
N882        C883   1.343       .  A
N882       Cu888   2.069       .  S
C883        C884   1.378       .  A
C883        H886   1.082       .  S
C884        C885   1.386   1_455  A
C884        C932   1.468   1_455  S
C885        H887   1.082       .  S
Cu888       N891   2.070       .  S
Cu889       N899   2.099       .  S
Cu890       N892   2.058       .  S
Cu890       N898   2.059       .  S
N891        N892   1.320       .  A
N891        C895   1.347       .  A
N892        C893   1.341       .  A
C893        C894   1.382       .  A
C893        H896   1.082       .  S
C894        C895   1.386       .  A
C894        C918   1.471       .  S
C895        H897   1.082       .  S
N898        N899   1.322       .  A
N898        C902   1.342       .  A
N899        C900   1.350       .  A
C900        C901   1.390       .  A
C900        H903   1.082   1_455  S
C901        C902   1.379       .  A
C901        C977   1.481       .  S
C902        H904   1.082       .  S
N905        N906   1.324       .  A
N905        C909   1.351   1_455  A
N905       Cu913   2.109       .  S
N906        C907   1.344       .  A
N906       Cu912   2.069       .  S
C907        C908   1.380       .  A
C907        H910   1.082       .  S
C908        C909   1.390   1_455  A
C908        C956   1.473   1_455  S
Cu912       N915   2.068       .  S
Cu913       N923   2.109       .  S
Cu914       N916   2.061       .  S
Cu914       N922   2.062       .  S
N915        N916   1.320       .  A
N915        C919   1.346       .  A
N916        C917   1.341       .  A
C917        C918   1.383       .  A
C917        H920   1.082       .  S
C918        C919   1.385       .  A
C919        H921   1.082       .  S
N922        N923   1.322       .  A
N922        C926   1.341       .  A
C924        C925   1.395       .  A
C924        H927   1.082   1_455  S
C925        C989   1.485       .  S
C926        H928   1.082       .  S
N929        N930   1.323       .  A
N929        C933   1.347       .  A
N929       Cu937   2.084       .  S
N930        C931   1.344       .  A
N930       Cu936   2.074       .  S
C931        C932   1.382       .  A
C931        H934   1.082       .  S
C932        C933   1.385       .  A
C933        H935   1.082   1_655  S
Cu936       N939   2.075       .  S
Cu937       N947   2.084       .  S
Cu938       N940   2.074       .  S
Cu938       N946   2.074       .  S
N939        N940   1.322       .  A
N939        C943   1.346       .  A
N940        C941   1.345       .  A
C941        C942   1.383       .  A
C941        H944   1.082       .  S
C942        C943   1.385       .  A
C942        C966   1.475       .  S
C943        H945   1.082       .  S
N946        N947   1.320       .  A
N946        C950   1.344       .  A
N947        C948   1.346       .  A
C948        C949   1.392       .  A
C948        H951   1.079   1_655  S
C949        C950   1.390       .  A
C949       C1160   1.497       .  S
C950        H952   1.082       .  S
N953        N954   1.324       .  A
N953        C957   1.353       .  A
N953       Cu961   2.115       .  S
N954        C955   1.342       .  A
N954       Cu960   2.061       .  S
C955        C956   1.377       .  A
C955        H958   1.082       .  S
C956        C957   1.391       .  A
Cu960       N963   2.062       .  S
Cu961       N971   2.115       .  S
Cu962       N964   2.082       .  S
Cu962       N970   2.083       .  S
N963        N964   1.320       .  A
N963        C967   1.345       .  A
N964        C965   1.346       .  A
C965        C966   1.387       .  A
C965        H968   1.082       .  S
C966        C967   1.384       .  A
C967        H969   1.082       .  S
N970        N971   1.324       .  A
N970        C974   1.344       .  A
C972        C973   1.397       .  A
C972        H975   1.081       .  S
C973       C1184   1.499       .  S
C974        H976   1.081       .  S
C977        C978   1.392   1_455  A
C977        C982   1.394       .  A
C978        C979   1.416   1_655  A
C978        H987   1.083       .  S
C979        C980   1.465       .  A
C979        S983   1.815   1_455  S
C980        C981   1.392       .  A
C981        C982   1.397       .  A
C981        H988   1.039       .  S
C982        S984   1.800       .  S
S983        H986   1.406       .  S
S984        H985   1.406       .  S
C989        C990   1.394       .  A
C990        C991   1.400       .  A
C990        H999   1.083       .  S
C991        C992   1.419       .  A
C991        S995   1.818       .  S
C993        C994   1.410       .  A
C993       H1000   1.068       .  S
C994        S996   1.802   1_455  S
S995        H998   1.407       .  S
S996        H997   1.408       .  S
C1001      C1002   1.396       .  A
C1001      C1006   1.386       .  A
C1002      C1003   1.425       .  A
C1002      H1011   1.083       .  S
C1003      C1004   1.470       .  A
C1003      S1007   1.815       .  S
C1004      C1005   1.417       .  A
C1005      C1006   1.393       .  A
C1005      H1012   1.075   1_655  S
C1006      S1008   1.786       .  S
S1007      H1010   1.407       .  S
S1008      H1009   1.409       .  S
C1013      C1018   1.422       .  A
C1014      C1015   1.414       .  A
C1014      H1023   1.076       .  S
C1015      S1019   1.802       .  S
C1016      C1017   1.410       .  A
C1017      C1018   1.426       .  A
C1017      H1024   1.082       .  S
C1018      S1020   1.802       .  S
S1019      H1022   1.407       .  S
S1020      H1021   1.400       .  S
C1025      C1026   1.408       .  A
C1025      C1030   1.426       .  A
C1026      C1027   1.403       .  A
C1026      H1035   1.081       .  S
C1027      C1028   1.424       .  A
C1027      S1031   1.813       .  S
C1028      C1029   1.410       .  A
C1029      C1030   1.410       .  A
C1029      H1036   1.080       .  S
S1031      H1034   1.406       .  S
S1032      H1033   1.407       .  S
C1037      C1038   1.408       .  A
C1037      C1042   1.422       .  A
C1038      C1039   1.412   1_455  A
C1038      H1047   1.083       .  S
C1039      C1040   1.408       .  A
C1039      S1043   1.800       .  S
C1040      C1041   1.404       .  A
C1041      C1042   1.418   1_655  A
C1041      H1048   1.083       .  S
S1043      H1046   1.404       .  S
S1044      H1045   1.403   1_556  S
C1049      C1050   1.393       .  A
C1049      C1054   1.392       .  A
C1050      C1051   1.416       .  A
C1050      H1059   1.080       .  S
C1051      C1052   1.441       .  A
C1051      S1055   1.801       .  S
C1052      C1053   1.436       .  A
C1053      C1054   1.407       .  A
C1053      H1060   1.064       .  S
C1054      S1056   1.800       .  S
S1055      H1058   1.406       .  S
S1056      H1057   1.407       .  S
C1061      C1066   1.437       .  A
C1062      C1063   1.421       .  A
C1062      H1071   1.059       .  S
C1063      S1067   1.798       .  S
C1064      C1065   1.372       .  A
C1065      C1066   1.398       .  A
C1065      H1072   1.080       .  S
C1066      S1068   1.753       .  S
S1067      H1070   1.405       .  S
S1068      H1069   1.405       .  S
C1073      C1074   1.410       .  A
C1073      C1078   1.424       .  A
C1074      C1075   1.407       .  A
C1074      H1083   1.080       .  S
C1075      C1076   1.422       .  A
C1076      C1077   1.410       .  A
C1077      C1078   1.402       .  A
C1077      H1084   1.080       .  S
C1078      S1080   1.804       .  S
S1079      H1082   1.403   1_556  S
S1080      H1081   1.405       .  S
C1085      C1086   1.393   1_545  A
C1085      C1090   1.406       .  A
C1086      C1087   1.394       .  A
C1086      H1095   1.082       .  S
C1087      C1088   1.441       .  A
C1087      S1091   1.811       .  S
C1088      C1089   1.420   1_565  A
C1089      C1090   1.414       .  A
C1089      H1096   1.063       .  S
C1090      S1092   1.799       .  S
S1091      H1094   1.392       .  S
S1092      H1093   1.405       .  S
C1097      C1098   1.454       .  A
C1098      C1099   1.391   1_565  A
C1098      H1107   1.060       .  S
C1099      C1100   1.390       .  A
C1099      S1103   1.792   1_545  S
C1100      C1101   1.424       .  A
C1102      S1104   1.803   1_554  S
S1103      H1106   1.408       .  S
S1104      H1105   1.407   1_545  S
C1109      C1110   1.411       .  A
C1109      C1114   1.416       .  A
C1110      C1111   1.417       .  A
C1110      H1119   1.084       .  S
C1111      C1112   1.418       .  A
C1112      C1113   1.407       .  A
C1113      C1114   1.412       .  A
C1113      H1120   1.082       .  S
C1114      S1116   1.801       .  S
S1115      H1118   1.405   1_565  S
S1116      H1117   1.407       .  S
C1121      C1122   1.412       .  A
C1121      C1126   1.429       .  A
C1122      C1123   1.418       .  A
C1122      H1131   1.082       .  S
C1123      C1124   1.423       .  A
C1123      S1127   1.810       .  S
C1124      C1125   1.444       .  A
C1125      C1126   1.454       .  A
C1125      H1132   1.058       .  S
C1126      S1128   1.798       .  S
S1127      H1130   1.408       .  S
S1128      H1129   1.405       .  S
C1133      C1134   1.323       .  A
C1134      C1135   1.395       .  A
C1134      H1143   1.088       .  S
C1135      C1136   1.347       .  A
C1135      S1139   1.815       .  S
C1137      C1138   1.496       .  A
C1137      H1144   1.082       .  S
C1138      S1140   1.791       .  S
S1139      H1142   1.389       .  S
S1140      H1141   1.408       .  S
C1145      C1146   1.407       .  A
C1145      C1150   1.422       .  A
C1146      C1147   1.400       .  A
C1146      H1155   1.082       .  S
C1147      C1148   1.422       .  A
C1147      S1151   1.811       .  S
C1148      C1149   1.409       .  A
C1149      C1150   1.402       .  A
C1149      H1156   1.080       .  S
S1151      H1154   1.407       .  S
S1152      H1153   1.408       .  S
C1157      C1158   1.403       .  A
C1157      C1162   1.446       .  A
C1158      C1159   1.403       .  A
C1158      H1167   1.050   1_655  S
C1159      C1160   1.409       .  A
C1159      S1163   1.798       .  S
C1160      C1161   1.396       .  A
C1161      C1162   1.406       .  A
C1161      H1168   1.082       .  S
C1162      S1164   1.809       .  S
S1163      H1166   1.407       .  S
S1164      H1165   1.407       .  S
C1169      C1170   1.408       .  A
C1169      C1174   1.369       .  A
C1170      C1171   1.437       .  A
C1170      H1179   1.082       .  S
C1171      C1172   1.468       .  A
C1171      S1175   1.815       .  S
C1172      C1173   1.415       .  A
C1173      C1174   1.383       .  A
C1173      H1180   1.079       .  S
C1174      S1176   1.780       .  S
S1175      H1178   1.407       .  S
S1176      H1177   1.409       .  S
C1181      C1182   1.427       .  A
C1181      C1186   1.435   1_655  A
C1183      S1187   1.802       .  S
C1184      C1185   1.402   1_655  A
C1185      C1186   1.406       .  A
C1185      H1192   1.083       .  S
C1186      S1188   1.818       .  S
S1187      H1190   1.407       .  S
S1188      H1189   1.408       .  S
C1193      C1194   1.399       .  A
C1194      C1195   1.419       .  A
C1194      H1203   1.084       .  S
C1195      C1196   1.465       .  A
C1195      S1199   1.810       .  S
C1196      C1197   1.425       .  A
C1198      S1200   1.791   1_554  S
S1199      H1202   1.400       .  S
S1200      H1201   1.408       .  S
C1205      C1206   1.443       .  A
C1205      C1210   1.461       .  A
C1206      C1207   1.448   1_565  A
C1206      H1215   1.070   1_565  S
C1207      C1208   1.425       .  A
C1207      S1211   1.795       .  S
C1208      C1209   1.371   1_545  A
C1209      C1210   1.410       .  A
C1209      H1216   1.086       .  S
C1210      S1212   1.751       .  S
S1211      H1214   1.405       .  S
S1212      H1213   1.403       .  S
C1217      C1222   1.345       .  A
C1218      C1219   1.495   1_565  A
C1218      H1227   1.079   1_554  S
C1219      S1223   1.792   1_554  S
C1220      C1221   1.347       .  A
C1221      C1222   1.408   1_545  A
C1221      H1228   1.078       .  S
C1222      S1224   1.844       .  S
S1223      H1226   1.405       .  S
S1224      H1225   1.354       .  S
C1229      C1230   1.407       .  A
C1229      C1234   1.424       .  A
C1230      C1231   1.418       .  A
C1230      H1239   1.083       .  S
C1231      C1232   1.416       .  A
C1232      C1233   1.409       .  A
C1233      C1234   1.420       .  A
C1233      H1240   1.083       .  S
C1234      S1236   1.807       .  S
S1235      H1238   1.406       .  S
S1236      H1237   1.399       .  S
C1241      C1242   1.394       .  A
C1241      C1246   1.407       .  A
C1242      C1243   1.415       .  A
C1242      H1251   1.077       .  S
C1243      C1244   1.425       .  A
C1243      S1247   1.809       .  S
C1244      C1245   1.438       .  A
C1245      C1246   1.424       .  A
C1245      H1252   1.081       .  S
C1246      S1248   1.798       .  S
S1247      H1250   1.409       .  S
S1248      H1249   1.407       .  S
C1253      C1254   1.393       .  A
C1253      C1258   1.408       .  A
C1254      C1255   1.408       .  A
C1254      H1263   1.083       .  S
C1255      C1256   1.437       .  A
C1255      S1259   1.797       .  S
C1256      C1257   1.419       .  A
C1257      C1258   1.424       .  A
C1257      H1264   1.062       .  S
C1258      S1260   1.800       .  S
S1259      H1262   1.406       .  S
S1260      H1261   1.406       .  S
C1265      C1266   1.407       .  A
C1265      C1270   1.410       .  A
C1266      C1267   1.412   1_455  A
C1266      H1275   1.083       .  S
C1267      C1268   1.408       .  A
C1267      S1271   1.803       .  S
C1268      C1269   1.400       .  A
C1269      C1270   1.405   1_655  A
C1269      H1276   1.080       .  S
S1271      H1274   1.405       .  S
S1272      H1273   1.403   1_556  S
C1277      C1278   1.444       .  A
C1277      C1282   1.413       .  A
C1278      C1279   1.404       .  A
C1278      H1287   1.074       .  S
C1279      C1280   1.388       .  A
C1279      S1283   1.799       .  S
C1280      C1281   1.408       .  A
C1281      C1282   1.423       .  A
C1281      H1288   1.082       .  S
C1282      S1284   1.805       .  S
S1283      H1286   1.407       .  S
S1284      H1285   1.404       .  S
C1289      C1294   1.434       .  A
C1290      C1291   1.404       .  A
C1290      H1299   1.083       .  S
C1291      S1295   1.794       .  S
C1292      C1293   1.394       .  A
C1293      C1294   1.412       .  A
C1293      H1300   1.081       .  S
C1294      S1296   1.813       .  S
S1295      H1298   1.408       .  S
S1296      H1297   1.407       .  S
C1301      C1302   1.410       .  A
C1301      C1306   1.424       .  A
C1302      C1303   1.404       .  A
C1302      H1311   1.081       .  S
C1303      C1304   1.421       .  A
C1303      S1307   1.809       .  S
C1304      C1305   1.408       .  A
C1305      C1306   1.404       .  A
C1305      H1312   1.078       .  S
S1307      H1310   1.407       .  S
S1308      H1309   1.406       .  S
C1313      C1314   1.389       .  A
C1314      C1315   1.407       .  A
C1314      H1323   1.083       .  S
C1315      C1316   1.450       .  A
C1315      S1319   1.804       .  S
C1317      C1318   1.400       .  A
C1317      H1324   1.073       .  S
C1318      S1320   1.805       .  S
S1319      H1322   1.408       .  S
S1320      H1321   1.407       .  S
C1325      C1326   1.383       .  A
C1325      C1330   1.395       .  A
C1326      C1327   1.404       .  A
C1326      H1335   1.084       .  S
C1327      C1328   1.455       .  A
C1327      S1331   1.796       .  S
C1328      C1329   1.433       .  A
C1329      C1330   1.398       .  A
C1329      H1336   1.068       .  S
C1330      S1332   1.805       .  S
S1331      H1334   1.408       .  S
S1332      H1333   1.406   1_565  S
C1337      C1338   1.391       .  A
C1338      C1339   1.413       .  A
C1338      H1347   1.083       .  S
C1339      C1340   1.443       .  A
C1339      S1343   1.774       .  S
C1341      C1342   1.402   1_554  A
C1341      H1348   1.063       .  S
C1342      S1344   1.805   1_565  S
S1343      H1346   1.408       .  S
S1344      H1345   1.407       .  S
C1349      C1350   1.392       .  A
C1349      C1354   1.402       .  A
C1350      C1351   1.406       .  A
C1350      H1359   1.085       .  S
C1351      C1352   1.449       .  A
C1351      S1355   1.802   1_565  S
C1352      C1353   1.426       .  A
C1353      C1354   1.397       .  A
C1353      H1360   1.071       .  S
C1354      S1356   1.806       .  S
S1355      H1358   1.373   1_545  S
S1356      H1357   1.406       .  S
