geometry optimzed in LAMMPS
_audit_creation_date              2020-12-01 
_audit_creation_method            'lammps2cif' 
_symmetry_space_group_name_H-M    'P1' 
_symmetry_Int_Tables_number       1 
_symmetry_cell_setting            triclinic 
loop_ 
_symmetry_equiv_pos_as_xyz 
  x,y,z 
_cell_length_a                    30.48530013 
_cell_length_b                    43.77113670364588 
_cell_length_c                    37.728432890093316 
_cell_angle_alpha                 89.99867454395346 
_cell_angle_beta                  89.9948908660247 
_cell_angle_gamma                 89.99926048869017 
loop_ 
_atom_site_label 
_atom_site_type_symbol 
_atom_site_fract_x 
_atom_site_fract_y 
_atom_site_fract_z 
_atom_site_charge 
In1        In  0.67539202  0.24763544  0.25048997     1.36900
C2          C  0.71271687  0.19278149  0.25024280     0.80400
O3          O  0.67781209  0.24738112  0.31004447    -0.58100
O4          O  0.61540981  0.24790168  0.28488833    -0.49000
C5          C  0.71270262  0.30249221  0.25063347     0.73000
O6          O  0.73487413  0.27819523  0.25084088    -0.43900
C7          C  0.63671487  0.24762411  0.18753819     0.77700
O8          O  0.73488223  0.21708160  0.25012924    -0.55700
O9          O  0.61540050  0.24740259  0.21611088    -0.45800
O10         O  0.67178992  0.19644483  0.25050941    -0.52200
C11         C  0.63672689  0.24765303  0.31345522     0.87900
O12         O  0.67177817  0.29882374  0.25035744    -0.54000
O13         O  0.67780151  0.24785680  0.19093800    -0.57300
In14       In  0.83751458  0.99763133  0.25001581     1.36900
C15         C  0.80019232  0.44277893  0.25026074     0.80400
O16         O  0.83509390  0.99733897  0.19046106    -0.58100
O17         O  0.89749563  0.49791916  0.21561619    -0.49000
C18         C  0.80018608  0.05248524  0.24986506     0.73000
O19         O  0.77802207  0.02818554  0.24967581    -0.43900
C20         C  0.87620076  0.49760767  0.31296676     0.77700
O21         O  0.77802686  0.46707937  0.25037522    -0.55700
O22         O  0.89751114  0.49740375  0.28439206    -0.45800
O23         O  0.84111982  0.44644076  0.24999576    -0.52200
C24         C  0.87617873  0.49763631  0.18704967     0.87900
O25         O  0.84111124  0.04882098  0.25012658    -0.54000
O26         O  0.83511375  0.99783067  0.30956952    -0.57300
In27       In  0.33754269  0.24508075  0.25051930     1.36900
C28         C  0.30022429  0.29993935  0.25027130     0.80400
O29         O  0.33511347  0.24535879  0.31007493    -0.58100
O30         O  0.39751858  0.24478863  0.28491638    -0.49000
C31         C  0.30020837  0.19022757  0.25066253     0.73000
O32         O  0.27804677  0.21452889  0.25085952    -0.43900
C33         C  0.37624648  0.24509947  0.18756945     0.77700
O34         O  0.27805769  0.27563982  0.25015499    -0.55700
O35         O  0.39754945  0.24531134  0.21614460    -0.45800
O36         O  0.34115110  0.29627377  0.25054228    -0.52200
C37         C  0.37619790  0.24506354  0.31348415     0.87900
O38         O  0.34113388  0.19388991  0.25039884    -0.54000
O39         O  0.33515877  0.24487098  0.19096590    -0.57300
In40       In  0.17538143  0.49508362  0.24999461     1.36900
C41         C  0.21271926  0.04993536  0.25024629     0.80400
O42         O  0.17780376  0.49534528  0.19043784    -0.58100
O43         O  0.11540109  0.49482130  0.21560044    -0.49000
C44         C  0.21270273  0.44022517  0.24985445     0.73000
O45         O  0.23486831  0.46452415  0.24963782    -0.44700
C46         C  0.13668034  0.49510867  0.31294539     0.77700
O47         O  0.23487854  0.02563227  0.25036749    -0.55700
O48         O  0.11537640  0.49532372  0.28437074    -0.45800
O49         O  0.17179195  0.04627629  0.24996767    -0.52200
C50         C  0.13671870  0.49507640  0.18703097     0.87900
O51         O  0.17177760  0.44389186  0.25013574    -0.54000
O52         O  0.17776787  0.49487201  0.30954808    -0.57300
C53         C  0.02954773  0.49595120  0.03221910     0.05100
C54         C  0.98334509  0.49677385  0.03222393     0.05000
C55         C  0.96054803  0.49716922  0.00001155    -0.15500
C56         C  0.98334024  0.49676255  0.46779407     0.05100
C57         C  0.02954348  0.49596240  0.46778896     0.05000
C58         C  0.05234030  0.49555592  0.00000132    -0.15500
H59         H  0.08792471  0.49494414  0.99999707     0.07100
H60         H  0.92496356  0.49778088  0.00001551     0.07100
C61         C  0.52957784  0.24681768  0.03271426     0.05100
C62         C  0.48337566  0.24599217  0.03272205     0.05000
C63         C  0.46057740  0.24557320  0.50051088    -0.15500
C64         C  0.48336786  0.24597880  0.46829237     0.05100
C65         C  0.52956937  0.24682791  0.46828508     0.05000
C66         C  0.55236780  0.24723817  0.50049618    -0.15500
H67         H  0.58795162  0.24786742  0.50049076     0.07100
H68         H  0.42499380  0.24494056  0.50051658     0.07100
C69         C  0.05410179  0.49560337  0.43509527    -0.15700
C70         C  0.07415514  0.49538794  0.40758054     0.08300
C71         C  0.09689349  0.49522532  0.37503119     0.10200
C72         C  0.11553902  0.49514622  0.34688315    -0.16600
C73         C  0.11559074  0.49507877  0.15309060    -0.15700
C74         C  0.09693692  0.49513830  0.12494865     0.08300
C75         C  0.07417879  0.49530849  0.09241141     0.10200
C76         C  0.05411119  0.49555333  0.06490649    -0.16600
C77         C  0.23240790  0.41043107  0.24981365    -0.15700
C78         C  0.24774385  0.38503331  0.24984773     0.08300
C79         C  0.26517656  0.35512901  0.24996081     0.10200
C80         C  0.28051699  0.32973274  0.25009729    -0.16600
C81         C  0.28050102  0.16043481  0.25070532    -0.15700
C82         C  0.26517692  0.13503402  0.25067274     0.08300
C83         C  0.24776350  0.10512482  0.25056046     0.10200
C84         C  0.23243253  0.07972621  0.25042304    -0.16600
C85         C  0.45880324  0.24556068  0.43560668    -0.15700
C86         C  0.43873423  0.24530115  0.40810310     0.08300
C87         C  0.41597521  0.24512083  0.37556711     0.10200
C88         C  0.39732223  0.24506035  0.34742527    -0.16600
C89         C  0.39738877  0.24513308  0.15363198    -0.15700
C90         C  0.41603335  0.24521413  0.12548347     0.08300
C91         C  0.43876923  0.24538690  0.09293291     0.10200
C92         C  0.45882018  0.24561561  0.06541709    -0.16600
C93         C  0.89733535  0.49757349  0.34690432    -0.15700
C94         C  0.91597949  0.49749728  0.37505039     0.08300
C95         C  0.93872006  0.49733646  0.40759570     0.10200
C96         C  0.95877715  0.49712144  0.43510593    -0.16600
C97         C  0.89730696  0.49763617  0.15310733    -0.15700
C98         C  0.91596089  0.49758014  0.12496331     0.08300
C99         C  0.93871895  0.49741360  0.09242365     0.10200
C100        C  0.95878549  0.49717067  0.06491587    -0.16600
C101        C  0.73242359  0.16298904  0.25007240    -0.15700
C102        C  0.74775015  0.13758936  0.24994240     0.08300
C103        C  0.76515960  0.10767952  0.24983977     0.10200
C104        C  0.78048143  0.08227831  0.24981507    -0.16600
C105        C  0.73239990  0.33228675  0.25068069    -0.15700
C106        C  0.74772550  0.35768627  0.25065561     0.08300
C107        C  0.76514719  0.38759181  0.25055498     0.10200
C108        C  0.78048339  0.41298808  0.25042787    -0.16600
C109        C  0.61559861  0.24766405  0.34739747    -0.15700
C110        C  0.59694622  0.24761935  0.37554216     0.08300
C111        C  0.57419099  0.24746497  0.40808316     0.10200
C112        C  0.55412665  0.24722751  0.43559205    -0.16600
C113        C  0.55414283  0.24717837  0.06540038    -0.15700
C114        C  0.57420142  0.24738685  0.09290934     0.08300
C115        C  0.59694209  0.24753482  0.12545365     0.10200
C116        C  0.61558462  0.24760008  0.15359985    -0.16600
In117      In  0.67539199  0.24763539  0.75048993     1.36900
C118        C  0.71271683  0.19278148  0.75024278     0.80400
O119        O  0.67781212  0.24738117  0.81004453    -0.58100
O120        O  0.61540987  0.24790151  0.78488833    -0.49000
C121        C  0.71270262  0.30249226  0.75063344     0.73000
O122        O  0.73487412  0.27819527  0.75084077    -0.43900
C123        C  0.63671481  0.24762404  0.68753823     0.77700
O124        O  0.73488215  0.21708161  0.75012909    -0.55700
O125        O  0.61540040  0.24740249  0.71611091    -0.45800
O126        O  0.67178988  0.19644477  0.75050952    -0.52200
C127        C  0.63672690  0.24765299  0.81345525     0.87900
O128        O  0.67177818  0.29882376  0.75035733    -0.54000
O129        O  0.67780144  0.24785670  0.69093803    -0.57300
In130      In  0.83751461  0.99763132  0.75001587     1.36900
C131        C  0.80019224  0.44277902  0.75026078     0.80400
O132        O  0.83509392  0.99733904  0.69046109    -0.58100
O133        O  0.89749558  0.49791920  0.71561625    -0.49000
C134        C  0.80018612  0.05248525  0.74986510     0.73000
O135        O  0.77802207  0.02818557  0.74967591    -0.43900
C136        C  0.87620075  0.49760768  0.81296679     0.77700
O137        O  0.77802679  0.46707946  0.75037510    -0.55700
O138        O  0.89751117  0.49740379  0.78439212    -0.45800
O139        O  0.84111975  0.44644084  0.74999589    -0.52200
C140        C  0.87617870  0.49763632  0.68704972     0.87900
O141        O  0.84111126  0.04882094  0.75012666    -0.54000
O142        O  0.83511383  0.99783073  0.80956948    -0.57300
In143      In  0.33754264  0.24508080  0.75051925     1.36900
C144        C  0.30022446  0.29993943  0.75027140     0.80400
O145        O  0.33511345  0.24535867  0.81007491    -0.58100
O146        O  0.39751853  0.24478874  0.78491633    -0.49000
C147        C  0.30020830  0.19022761  0.75066262     0.73000
O148        O  0.27804669  0.21452894  0.75085959    -0.43900
C149        C  0.37624642  0.24509937  0.68756940     0.77700
O150        O  0.27805778  0.27563993  0.75015506    -0.55700
O151        O  0.39754937  0.24531140  0.71614455    -0.45800
O152        O  0.34115126  0.29627379  0.75054235    -0.52200
C153        C  0.37619789  0.24506352  0.81348412     0.87900
O154        O  0.34113381  0.19388998  0.75039891    -0.54000
O155        O  0.33515872  0.24487082  0.69096582    -0.57300
In156      In  0.17538137  0.49508356  0.74999465     1.36900
C157        C  0.21271925  0.04993532  0.75024630     0.80400
O158        O  0.17780376  0.49534515  0.69043793    -0.58100
O159        O  0.11540101  0.49482140  0.71560042    -0.49000
C160        C  0.21270275  0.44022521  0.74985443     0.73000
O161        O  0.23486832  0.46452419  0.74963770    -0.44700
C162        C  0.13668026  0.49510865  0.81294534     0.77700
O163        O  0.23487851  0.02563223  0.75036754    -0.55700
O164        O  0.11537634  0.49532362  0.78437068    -0.45800
O165        O  0.17179193  0.04627630  0.74996772    -0.52200
C166        C  0.13671870  0.49507644  0.68703099     0.87900
O167        O  0.17177761  0.44389186  0.75013587    -0.54000
O168        O  0.17776779  0.49487191  0.80954809    -0.57300
C169        C  0.02954776  0.49595124  0.53221911     0.05100
C170        C  0.98334513  0.49677377  0.53222393     0.05000
C171        C  0.96054800  0.49716924  0.50001156    -0.15500
C172        C  0.98334021  0.49676260  0.96779406     0.05100
C173        C  0.02954347  0.49596246  0.96778893     0.05000
C174        C  0.05234037  0.49555599  0.50000135    -0.15500
H175        H  0.08792467  0.49494430  0.49999709     0.07100
H176        H  0.92496367  0.49778097  0.50001557     0.07100
C177        C  0.52957787  0.24681768  0.53271430     0.05100
C178        C  0.48337570  0.24599214  0.53272206     0.05000
C179        C  0.46057735  0.24557321  0.00051088    -0.15500
C180        C  0.48336779  0.24597881  0.96829237     0.05100
C181        C  0.52956928  0.24682797  0.96828504     0.05000
C182        C  0.55236781  0.24723827  0.00049611    -0.15500
H183        H  0.58795148  0.24786755  0.00049062     0.07100
H184        H  0.42499377  0.24494050  0.00051660     0.07100
C185        C  0.05410173  0.49560340  0.93509521    -0.15700
C186        C  0.07415501  0.49538789  0.90758045     0.08300
C187        C  0.09689339  0.49522536  0.87503109     0.10200
C188        C  0.11553892  0.49514631  0.84688306    -0.16600
C189        C  0.11559082  0.49507880  0.65309058    -0.15700
C190        C  0.09693688  0.49513825  0.62494869     0.08300
C191        C  0.07417872  0.49530852  0.59241147     0.10200
C192        C  0.05411121  0.49555342  0.56490650    -0.16600
C193        C  0.23240792  0.41043109  0.74981359    -0.15700
C194        C  0.24774386  0.38503333  0.74984771     0.08300
C195        C  0.26517670  0.35512906  0.74996076     0.10200
C196        C  0.28051723  0.32973283  0.75009733    -0.16600
C197        C  0.28050097  0.16043482  0.75070542    -0.15700
C198        C  0.26517683  0.13503403  0.75067285     0.08300
C199        C  0.24776341  0.10512480  0.75056056     0.10200
C200        C  0.23243254  0.07972616  0.75042308    -0.16600
C201        C  0.45880316  0.24556057  0.93560672    -0.15700
C202        C  0.43873425  0.24530105  0.90810309     0.08300
C203        C  0.41597536  0.24512081  0.87556704     0.10200
C204        C  0.39732230  0.24506030  0.84742522    -0.16600
C205        C  0.39738872  0.24513297  0.65363193    -0.15700
C206        C  0.41603330  0.24521416  0.62548342     0.08300
C207        C  0.43876941  0.24538699  0.59293297     0.10200
C208        C  0.45882033  0.24561565  0.56541713    -0.16600
C209        C  0.89733526  0.49757352  0.84690438    -0.15700
C210        C  0.91597948  0.49749736  0.87505042     0.08300
C211        C  0.93872018  0.49733655  0.90759564     0.10200
C212        C  0.95877717  0.49712152  0.93510591    -0.16600
C213        C  0.89730697  0.49763621  0.65310737    -0.15700
C214        C  0.91596091  0.49758019  0.62496334     0.08300
C215        C  0.93871888  0.49741350  0.59242363     0.10200
C216        C  0.95878547  0.49717051  0.56491586    -0.16600
C217        C  0.73242358  0.16298907  0.75007228    -0.15700
C218        C  0.74775005  0.13758936  0.74994228     0.08300
C219        C  0.76515955  0.10767953  0.74983975     0.10200
C220        C  0.78048151  0.08227835  0.74981502    -0.16600
C221        C  0.73239988  0.33228683  0.75068080    -0.15700
C222        C  0.74772544  0.35768636  0.75065571     0.08300
C223        C  0.76514712  0.38759189  0.75055508     0.10200
C224        C  0.78048332  0.41298816  0.75042797    -0.16600
C225        C  0.61559854  0.24766409  0.84739747    -0.15700
C226        C  0.59694618  0.24761945  0.87554217     0.08300
C227        C  0.57419095  0.24746500  0.90808314     0.10200
C228        C  0.55412655  0.24722746  0.93559200    -0.16600
C229        C  0.55414281  0.24717840  0.56540046    -0.15700
C230        C  0.57420140  0.24738680  0.59290941     0.08300
C231        C  0.59694219  0.24753480  0.62545367     0.10200
C232        C  0.61558465  0.24760004  0.65359987    -0.16600
In233      In  0.67539197  0.74763547  0.25048999     1.36900
C234        C  0.71271679  0.69278152  0.25024280     0.80400
O235        O  0.67781210  0.74738111  0.31004452    -0.58100
O236        O  0.61540983  0.74790168  0.28488832    -0.49000
C237        C  0.71270262  0.80249224  0.25063347     0.73000
O238        O  0.73487413  0.77819526  0.25084088    -0.43900
C239        C  0.63671482  0.74762405  0.18753821     0.77700
O240        O  0.73488215  0.71708163  0.25012924    -0.55700
O241        O  0.61540036  0.74740244  0.21611087    -0.45800
O242        O  0.67178985  0.69644487  0.25050941    -0.52200
C243        C  0.63672688  0.74765299  0.31345522     0.87900
O244        O  0.67177818  0.79882378  0.25035744    -0.54000
O245        O  0.67780144  0.74785687  0.19093809    -0.57300
In246      In  0.83751462  0.49763129  0.25001581     1.36900
C247        C  0.80019223  0.94277897  0.25026080     0.80400
O248        O  0.83509397  0.49733898  0.19046107    -0.58100
O249        O  0.89749556  0.99791915  0.21561618    -0.49000
C250        C  0.80018611  0.55248523  0.24986505     0.73000
O251        O  0.77802208  0.52818554  0.24967581    -0.43900
C252        C  0.87620075  0.99760763  0.31296676     0.77700
O253        O  0.77802678  0.96707941  0.25037523    -0.55700
O254        O  0.89751112  0.99740374  0.28439206    -0.45800
O255        O  0.84111973  0.94644080  0.24999576    -0.52200
C256        C  0.87617866  0.99763627  0.18704966     0.87900
O257        O  0.84111126  0.54882093  0.25012658    -0.54000
O258        O  0.83511376  0.49783068  0.30956952    -0.57300
In259      In  0.33754265  0.74508076  0.25051931     1.36900
C260        C  0.30022445  0.79993938  0.25027130     0.80400
O261        O  0.33511345  0.74535863  0.31007498    -0.58100
O262        O  0.39751851  0.74478869  0.28491635    -0.49000
C263        C  0.30020836  0.69022756  0.25066253     0.73000
O264        O  0.27804678  0.71452890  0.25085953    -0.43900
C265        C  0.37624642  0.74509945  0.18756943     0.77700
O266        O  0.27805777  0.77563989  0.25015499    -0.55700
O267        O  0.39754937  0.74531141  0.21614458    -0.45800
O268        O  0.34115125  0.79627375  0.25054228    -0.52200
C269        C  0.37619789  0.74506347  0.31348415     0.87900
O270        O  0.34113388  0.69388990  0.25039884    -0.54000
O271        O  0.33515870  0.74487082  0.19096588    -0.57300
In272      In  0.17538138  0.99508356  0.24999462     1.36900
C273        C  0.21271921  0.54993534  0.25024629     0.80400
O274        O  0.17780375  0.99534511  0.19043789    -0.58100
O275        O  0.11540103  0.99482136  0.21560044    -0.49000
C276        C  0.21270274  0.94022517  0.24985445     0.73000
O277        O  0.23486832  0.96452415  0.24963783    -0.44700
C278        C  0.13668025  0.99510866  0.31294539     0.77700
O279        O  0.23487851  0.52563226  0.25036749    -0.55700
O280        O  0.11537632  0.99532355  0.28437074    -0.45800
O281        O  0.17179189  0.54627631  0.24996767    -0.52200
C282        C  0.13671869  0.99507639  0.18703100     0.87900
O283        O  0.17177761  0.94389183  0.25013575    -0.54000
O284        O  0.17776779  0.99487206  0.30954808    -0.57300
C285        C  0.02954773  0.99595124  0.03221912     0.05100
C286        C  0.98334510  0.99677389  0.03222393     0.05000
C287        C  0.96054798  0.99716926  0.00001153    -0.15500
C288        C  0.98334019  0.99676255  0.46779408     0.05100
C289        C  0.02954343  0.99596240  0.46778896     0.05000
C290        C  0.05234038  0.99555596  0.00000134    -0.15500
H291        H  0.08792462  0.99494418  0.99999709     0.07100
H292        H  0.92496366  0.99778091  0.00001547     0.07100
C293        C  0.52957786  0.74681772  0.03271423     0.05100
C294        C  0.48337569  0.74599221  0.03272203     0.05000
C295        C  0.46057735  0.74557324  0.50051089    -0.15500
C296        C  0.48336781  0.74597879  0.46829238     0.05100
C297        C  0.52956932  0.74682791  0.46828507     0.05000
C298        C  0.55236776  0.74723821  0.50049616    -0.15500
H299        H  0.58795158  0.74786744  0.50049074     0.07100
H300        H  0.42499379  0.74494058  0.50051661     0.07100
C301        C  0.05410171  0.99560341  0.43509527    -0.15700
C302        C  0.07415506  0.99538798  0.40758053     0.08300
C303        C  0.09689341  0.99522536  0.37503119     0.10200
C304        C  0.11553894  0.99514626  0.34688315    -0.16600
C305        C  0.11559077  0.99507876  0.15309062    -0.15700
C306        C  0.09693691  0.99513821  0.12494871     0.08300
C307        C  0.07417886  0.99530848  0.09241143     0.10200
C308        C  0.05411122  0.99555337  0.06490652    -0.16600
C309        C  0.23240791  0.91043105  0.24981365    -0.15700
C310        C  0.24774385  0.88503328  0.24984773     0.08300
C311        C  0.26517669  0.85512901  0.24996081     0.10200
C312        C  0.28051722  0.82973278  0.25009729    -0.16600
C313        C  0.28050097  0.66043478  0.25070532    -0.15700
C314        C  0.26517682  0.63503400  0.25067274     0.08300
C315        C  0.24776341  0.60512478  0.25056046     0.10200
C316        C  0.23243248  0.57972617  0.25042304    -0.16600
C317        C  0.45880317  0.74556058  0.43560672    -0.15700
C318        C  0.43873421  0.74530114  0.40810311     0.08300
C319        C  0.41597535  0.74512082  0.37556705     0.10200
C320        C  0.39732234  0.74506025  0.34742522    -0.16600
C321        C  0.39738876  0.74513311  0.15363196    -0.15700
C322        C  0.41603350  0.74521417  0.12548351     0.08300
C323        C  0.43876944  0.74538693  0.09293298     0.10200
C324        C  0.45882031  0.74561564  0.06541711    -0.16600
C325        C  0.89733533  0.99757347  0.34690433    -0.15700
C326        C  0.91597949  0.99749732  0.37505039     0.08300
C327        C  0.93872014  0.99733650  0.40759566     0.10200
C328        C  0.95877713  0.99712148  0.43510593    -0.16600
C329        C  0.89730694  0.99763616  0.15310734    -0.15700
C330        C  0.91596097  0.99758013  0.12496336     0.08300
C331        C  0.93871893  0.99741350  0.09242365     0.10200
C332        C  0.95878543  0.99717065  0.06491584    -0.16600
C333        C  0.73242351  0.66298907  0.25007240    -0.15700
C334        C  0.74775007  0.63758938  0.24994240     0.08300
C335        C  0.76515955  0.60767953  0.24983977     0.10200
C336        C  0.78048148  0.58227833  0.24981507    -0.16600
C337        C  0.73239988  0.83228679  0.25068076    -0.15700
C338        C  0.74772543  0.85768632  0.25065576     0.08300
C339        C  0.76514711  0.88759185  0.25055511     0.10200
C340        C  0.78048331  0.91298812  0.25042802    -0.16600
C341        C  0.61559854  0.74766404  0.34739745    -0.15700
C342        C  0.59694620  0.74761940  0.37554217     0.08300
C343        C  0.57419107  0.74746496  0.40808321     0.10200
C344        C  0.55412664  0.74722741  0.43559205    -0.16600
C345        C  0.55414281  0.74717835  0.06540037    -0.15700
C346        C  0.57420140  0.74738675  0.09290932     0.08300
C347        C  0.59694221  0.74753475  0.12545359     0.10200
C348        C  0.61558470  0.74759999  0.15359980    -0.16600
In349      In  0.67539196  0.74763541  0.75048993     1.36900
C350        C  0.71271681  0.69278147  0.75024278     0.80400
O351        O  0.67781218  0.74738103  0.81004449    -0.58100
O352        O  0.61540989  0.74790158  0.78488837    -0.49000
C353        C  0.71270261  0.80249229  0.75063345     0.73000
O354        O  0.73487410  0.77819530  0.75084077    -0.43900
C355        C  0.63671473  0.74762408  0.68753823     0.77700
O356        O  0.73488216  0.71708158  0.75012908    -0.55700
O357        O  0.61540032  0.74740252  0.71611091    -0.45800
O358        O  0.67178987  0.69644478  0.75050951    -0.52200
C359        C  0.63672697  0.74765297  0.81345525     0.87900
O360        O  0.67177817  0.79882379  0.75035734    -0.54000
O361        O  0.67780136  0.74785673  0.69093803    -0.57300
In362      In  0.83751457  0.49763137  0.75001587     1.36900
C363        C  0.80019230  0.94277901  0.75026078     0.80400
O364        O  0.83509394  0.49733902  0.69046112    -0.58100
O365        O  0.89749552  0.99791921  0.71561626    -0.49000
C366        C  0.80018606  0.55248529  0.74986510     0.73000
O367        O  0.77802201  0.52818561  0.74967591    -0.43900
C368        C  0.87620082  0.99760767  0.81296678     0.77700
O369        O  0.77802686  0.96707947  0.75037511    -0.55700
O370        O  0.89751128  0.99740380  0.78439212    -0.45800
O371        O  0.84111982  0.94644079  0.74999589    -0.52200
C372        C  0.87617868  0.99763635  0.68704972     0.87900
O373        O  0.84111120  0.54882099  0.75012666    -0.54000
O374        O  0.83511374  0.49783071  0.80956952    -0.57300
In375      In  0.33754262  0.74508076  0.75051926     1.36900
C376        C  0.30022439  0.79993944  0.75027140     0.80400
O377        O  0.33511352  0.74535869  0.81007487    -0.58100
O378        O  0.39751861  0.74478875  0.78491633    -0.49000
C379        C  0.30020836  0.69022758  0.75066262     0.73000
O380        O  0.27804671  0.71452890  0.75085959    -0.43900
C381        C  0.37624636  0.74509941  0.68756939     0.77700
O382        O  0.27805772  0.77563994  0.75015506    -0.55700
O383        O  0.39754929  0.74531142  0.71614454    -0.45800
O384        O  0.34115118  0.79627377  0.75054236    -0.52200
C385        C  0.37619795  0.74506356  0.81348410     0.87900
O386        O  0.34113388  0.69388993  0.75039892    -0.54000
O387        O  0.33515865  0.74487084  0.69096580    -0.57300
In388      In  0.17538141  0.99508360  0.74999465     1.36900
C389        C  0.21271928  0.54993530  0.75024630     0.80400
O390        O  0.17780371  0.99534519  0.69043792    -0.58100
O391        O  0.11540100  0.99482144  0.71560045    -0.49000
C392        C  0.21270269  0.94022524  0.74985443     0.73000
O393        O  0.23486830  0.96452421  0.74963770    -0.44700
C394        C  0.13668020  0.99510869  0.81294533     0.77700
O395        O  0.23487851  0.52563219  0.75036754    -0.55700
O396        O  0.11537633  0.99532366  0.78437065    -0.45800
O397        O  0.17179195  0.54627627  0.74996772    -0.52200
C398        C  0.13671865  0.99507648  0.68703101     0.87900
O399        O  0.17177755  0.94389191  0.75013587    -0.54000
O400        O  0.17776774  0.99487195  0.80954810    -0.57300
C401        C  0.02954775  0.99595124  0.53221911     0.05100
C402        C  0.98334511  0.99677378  0.53222393     0.05000
C403        C  0.96054796  0.99716914  0.50001157    -0.15500
C404        C  0.98334024  0.99676264  0.96779405     0.05100
C405        C  0.02954347  0.99596250  0.96778893     0.05000
C406        C  0.05234033  0.99555587  0.50000134    -0.15500
H407        H  0.08792465  0.99494406  0.49999705     0.07100
H408        H  0.92496362  0.99778080  0.50001560     0.07100
C409        C  0.52957783  0.74681772  0.53271429     0.05100
C410        C  0.48337567  0.74599218  0.53272206     0.05000
C411        C  0.46057735  0.74557319  0.00051088    -0.15500
C412        C  0.48336777  0.74597874  0.96829235     0.05100
C413        C  0.52956930  0.74682797  0.96828503     0.05000
C414        C  0.55236776  0.74723828  0.00049609    -0.15500
H415        H  0.58795157  0.74786755  0.00049061     0.07100
H416        H  0.42499375  0.74494048  0.00051665     0.07100
C417        C  0.05410176  0.99560344  0.93509522    -0.15700
C418        C  0.07415510  0.99538792  0.90758048     0.08300
C419        C  0.09689338  0.99522540  0.87503109     0.10200
C420        C  0.11553884  0.99514635  0.84688304    -0.16600
C421        C  0.11559075  0.99507885  0.65309061    -0.15700
C422        C  0.09693686  0.99513824  0.62494869     0.08300
C423        C  0.07417882  0.99530842  0.59241143     0.10200
C424        C  0.05411124  0.99555340  0.56490648    -0.16600
C425        C  0.23240784  0.91043113  0.74981359    -0.15700
C426        C  0.24774378  0.88503336  0.74984771     0.08300
C427        C  0.26517663  0.85512909  0.74996076     0.10200
C428        C  0.28051716  0.82973286  0.75009733    -0.16600
C429        C  0.28050103  0.66043481  0.75070542    -0.15700
C430        C  0.26517680  0.63503405  0.75067285     0.08300
C431        C  0.24776338  0.60512482  0.75056056     0.10200
C432        C  0.23243258  0.57972615  0.75042308    -0.16600
C433        C  0.45880311  0.74556056  0.93560672    -0.15700
C434        C  0.43873417  0.74530109  0.90810310     0.08300
C435        C  0.41597529  0.74512085  0.87556706     0.10200
C436        C  0.39732229  0.74506035  0.84742522    -0.16600
C437        C  0.39738870  0.74513302  0.65363194    -0.15700
C438        C  0.41603339  0.74521415  0.62548347     0.08300
C439        C  0.43876941  0.74538689  0.59293297     0.10200
C440        C  0.45882030  0.74561563  0.56541712    -0.16600
C441        C  0.89733525  0.99757337  0.84690439    -0.15700
C442        C  0.91597941  0.99749721  0.87505045     0.08300
C443        C  0.93872012  0.99733654  0.90759566     0.10200
C444        C  0.95877716  0.99712156  0.93510591    -0.16600
C445        C  0.89730701  0.99763626  0.65310739    -0.15700
C446        C  0.91596096  0.99758023  0.62496335     0.08300
C447        C  0.93871897  0.99741354  0.59242365     0.10200
C448        C  0.95878550  0.99717055  0.56491586    -0.16600
C449        C  0.73242351  0.66298905  0.75007228    -0.15700
C450        C  0.74775005  0.63758937  0.74994228     0.08300
C451        C  0.76515965  0.60767960  0.74983975     0.10200
C452        C  0.78048149  0.58227839  0.74981502    -0.16600
C453        C  0.73239986  0.83228686  0.75068080    -0.15700
C454        C  0.74772537  0.85768641  0.75065571     0.08300
C455        C  0.76514705  0.88759195  0.75055508     0.10200
C456        C  0.78048330  0.91298820  0.75042797    -0.16600
C457        C  0.61559866  0.74766407  0.84739747    -0.15700
C458        C  0.59694625  0.74761935  0.87554215     0.08300
C459        C  0.57419110  0.74746499  0.90808318     0.10200
C460        C  0.55412664  0.74722750  0.93559201    -0.16600
C461        C  0.55414276  0.74717844  0.56540046    -0.15700
C462        C  0.57420133  0.74738684  0.59290941     0.08300
C463        C  0.59694211  0.74753484  0.62545367     0.10200
C464        C  0.61558457  0.74760008  0.65359988    -0.16600
loop_ 
_geom_bond_atom_site_label_1 
_geom_bond_atom_site_label_2 
_geom_bond_distance 
_geom_bond_site_symmetry_2 
_ccdc_geom_bond_type 
In1           O3   2.248       .  S
In1           O4   2.242       .  S
In1          O12   2.243       .  S
In1           O6   2.253       .  S
In1           O8   2.253       .  S
In1           O9   2.242       .  S
In1          O10   2.243       .  S
In1          O13   2.248       .  S
C2            O8   1.260       .  A
C2           O10   1.258       .  A
C2          C101   1.436       .  S
O3           C11   1.259       .  A
O4           C11   1.259       .  A
C5           O12   1.258       .  A
C5            O6   1.260       .  A
C5          C105   1.436       .  S
C7            O9   1.259       .  A
C7           O13   1.259       .  A
C7          C116   1.433       .  S
C11         C109   1.433       .  S
In14         O16   2.248       .  S
In14         O25   2.243   1_565  S
In14         O19   2.253   1_565  S
In14         O26   2.248       .  S
In14        O249   2.242       .  S
In14        O253   2.253       .  S
In14        O254   2.242       .  S
In14        O255   2.243       .  S
C15          O21   1.260       .  A
C15          O23   1.258       .  A
C15         C108   1.436       .  S
O16         C256   1.259       .  A
O17        In246   2.242       .  S
O17          C24   1.259       .  A
C18          O25   1.258       .  A
C18          O19   1.260       .  A
C18         C104   1.436       .  S
C20          O22   1.259       .  A
C20         O258   1.259       .  A
C20          C93   1.433       .  S
O21        In246   2.253       .  S
O22        In246   2.242       .  S
O23        In246   2.243       .  S
C24         O248   1.259       .  A
C24          C97   1.433       .  S
O26         C252   1.259       .  A
In27         O29   2.248       .  S
In27         O30   2.242       .  S
In27         O38   2.243       .  S
In27         O32   2.253       .  S
In27         O34   2.253       .  S
In27         O35   2.242       .  S
In27         O36   2.243       .  S
In27         O39   2.248       .  S
C28          O34   1.260       .  A
C28          O36   1.258       .  A
C28          C80   1.436       .  S
O29          C37   1.259       .  A
O30          C37   1.259       .  A
C31          O38   1.258       .  A
C31          O32   1.260       .  A
C31          C81   1.436       .  S
C33          O35   1.259       .  A
C33          O39   1.259       .  A
C33          C89   1.433       .  S
C37          C88   1.433       .  S
In40         O42   2.248       .  S
In40         O43   2.242       .  S
In40         O51   2.243       .  S
In40         O45   2.253       .  S
In40         O48   2.242       .  S
In40         O52   2.248       .  S
In40        O279   2.253       .  S
In40        O281   2.243       .  S
C41          O47   1.260       .  A
C41          O49   1.258       .  A
C41          C84   1.436       .  S
O42          C50   1.259       .  A
O43          C50   1.259       .  A
C44          O51   1.258       .  A
C44          O45   1.260       .  A
C44          C77   1.436       .  S
C46          O48   1.259       .  A
C46          O52   1.259       .  A
C46          C72   1.433       .  S
O47        In272   2.253   1_545  S
O49        In272   2.243   1_545  S
C50          C73   1.433       .  S
C53          C76   1.443       .  S
C53          C54   1.409   1_455  A
C53          C58   1.400       .  A
C54         C100   1.443       .  S
C54          C55   1.400       .  A
C55         C172   1.400   1_554  A
C55          H60   1.085       .  S
C56          C96   1.443       .  S
C56          C57   1.409   1_655  A
C56         C171   1.400       .  A
C57          C69   1.443       .  S
C57         C174   1.400       .  A
C58         C173   1.400   1_554  A
C58          H59   1.085   1_554  S
C61         C113   1.443       .  S
C61          C62   1.409       .  A
C61         C182   1.400       .  A
C62          C92   1.443       .  S
C62         C179   1.400       .  A
C63          C64   1.400       .  A
C63         C178   1.400       .  A
C63          H68   1.085       .  S
C64          C85   1.443       .  S
C64          C65   1.409       .  A
C65         C112   1.443       .  S
C65          C66   1.400       .  A
C66         C177   1.400       .  A
C66          H67   1.085       .  S
C69          C70   1.205       .  T
C70          C71   1.410       .  S
C71          C72   1.204       .  T
C73          C74   1.204       .  T
C74          C75   1.410       .  S
C75          C76   1.205       .  T
C77          C78   1.206       .  T
C78          C79   1.413       .  S
C79          C80   1.206       .  T
C81          C82   1.206       .  T
C82          C83   1.413       .  S
C83          C84   1.206       .  T
C85          C86   1.205       .  T
C86          C87   1.410       .  S
C87          C88   1.204       .  T
C89          C90   1.204       .  T
C90          C91   1.410       .  S
C91          C92   1.205       .  T
C93          C94   1.204       .  T
C94          C95   1.410       .  S
C95          C96   1.205       .  T
C97          C98   1.204       .  T
C98          C99   1.410       .  S
C99         C100   1.205       .  T
C101        C102   1.206       .  T
C102        C103   1.413       .  S
C103        C104   1.206       .  T
C105        C106   1.206       .  T
C106        C107   1.413       .  S
C107        C108   1.206       .  T
C109        C110   1.204       .  T
C110        C111   1.410       .  S
C111        C112   1.205       .  T
C113        C114   1.205       .  T
C114        C115   1.410       .  S
C115        C116   1.204       .  T
In117       O119   2.248       .  S
In117       O120   2.242       .  S
In117       O128   2.243       .  S
In117       O122   2.253       .  S
In117       O124   2.253       .  S
In117       O125   2.242       .  S
In117       O126   2.243       .  S
In117       O129   2.248       .  S
C118        O124   1.260       .  A
C118        O126   1.258       .  A
C118        C217   1.436       .  S
O119        C127   1.259       .  A
O120        C127   1.259       .  A
C121        O128   1.258       .  A
C121        O122   1.260       .  A
C121        C221   1.436       .  S
C123        O125   1.259       .  A
C123        O129   1.259       .  A
C123        C232   1.433       .  S
C127        C225   1.433       .  S
In130       O132   2.248       .  S
In130       O365   2.242       .  S
In130       O141   2.243   1_565  S
In130       O135   2.253   1_565  S
In130       O369   2.253       .  S
In130       O370   2.242       .  S
In130       O371   2.243       .  S
In130       O142   2.248       .  S
C131        O137   1.260       .  A
C131        O139   1.258       .  A
C131        C224   1.436       .  S
O132        C372   1.259       .  A
O133       In362   2.242       .  S
O133        C140   1.259       .  A
C134        O141   1.258       .  A
C134        O135   1.260       .  A
C134        C220   1.436       .  S
C136        O138   1.259       .  A
C136        O374   1.259       .  A
C136        C209   1.433       .  S
O137       In362   2.253       .  S
O138       In362   2.242       .  S
O139       In362   2.243       .  S
C140        O364   1.259       .  A
C140        C213   1.433       .  S
O142        C368   1.259       .  A
In143       O145   2.248       .  S
In143       O146   2.242       .  S
In143       O154   2.243       .  S
In143       O148   2.253       .  S
In143       O150   2.253       .  S
In143       O151   2.242       .  S
In143       O152   2.243       .  S
In143       O155   2.248       .  S
C144        O150   1.260       .  A
C144        O152   1.258       .  A
C144        C196   1.436       .  S
O145        C153   1.259       .  A
O146        C153   1.259       .  A
C147        O154   1.258       .  A
C147        O148   1.260       .  A
C147        C197   1.436       .  S
C149        O151   1.259       .  A
C149        O155   1.259       .  A
C149        C205   1.433       .  S
C153        C204   1.433       .  S
In156       O158   2.248       .  S
In156       O159   2.242       .  S
In156       O167   2.243       .  S
In156       O161   2.253       .  S
In156       O395   2.253       .  S
In156       O164   2.242       .  S
In156       O397   2.243       .  S
In156       O168   2.248       .  S
C157        O163   1.260       .  A
C157        O165   1.258       .  A
C157        C200   1.436       .  S
O158        C166   1.259       .  A
O159        C166   1.259       .  A
C160        O167   1.258       .  A
C160        O161   1.260       .  A
C160        C193   1.436       .  S
C162        O164   1.259       .  A
C162        O168   1.259       .  A
C162        C188   1.433       .  S
O163       In388   2.253   1_545  S
O165       In388   2.243   1_545  S
C166        C189   1.433       .  S
C169        C192   1.443       .  S
C169        C170   1.409   1_455  A
C169        C174   1.400       .  A
C170        C216   1.443       .  S
C170        C171   1.400       .  A
C171        H176   1.085       .  S
C172        C212   1.443       .  S
C172        C173   1.409   1_655  A
C173        C185   1.443       .  S
C174        H175   1.085       .  S
C177        C229   1.443       .  S
C177        C178   1.409       .  A
C178        C208   1.443       .  S
C179        C180   1.400   1_554  A
C179        H184   1.085       .  S
C180        C201   1.443       .  S
C180        C181   1.409       .  A
C181        C228   1.443       .  S
C181        C182   1.400   1_556  A
C182        H183   1.085       .  S
C185        C186   1.205       .  T
C186        C187   1.410       .  S
C187        C188   1.204       .  T
C189        C190   1.204       .  T
C190        C191   1.410       .  S
C191        C192   1.205       .  T
C193        C194   1.206       .  T
C194        C195   1.413       .  S
C195        C196   1.206       .  T
C197        C198   1.206       .  T
C198        C199   1.413       .  S
C199        C200   1.206       .  T
C201        C202   1.205       .  T
C202        C203   1.410       .  S
C203        C204   1.204       .  T
C205        C206   1.204       .  T
C206        C207   1.410       .  S
C207        C208   1.205       .  T
C209        C210   1.204       .  T
C210        C211   1.410       .  S
C211        C212   1.205       .  T
C213        C214   1.204       .  T
C214        C215   1.410       .  S
C215        C216   1.205       .  T
C217        C218   1.206       .  T
C218        C219   1.413       .  S
C219        C220   1.206       .  T
C221        C222   1.206       .  T
C222        C223   1.413       .  S
C223        C224   1.206       .  T
C225        C226   1.204       .  T
C226        C227   1.410       .  S
C227        C228   1.205       .  T
C229        C230   1.205       .  T
C230        C231   1.410       .  S
C231        C232   1.204       .  T
In233       O235   2.248       .  S
In233       O236   2.242       .  S
In233       O244   2.243       .  S
In233       O238   2.253       .  S
In233       O240   2.253       .  S
In233       O241   2.242       .  S
In233       O242   2.243       .  S
In233       O245   2.248       .  S
C234        O240   1.260       .  A
C234        O242   1.258       .  A
C234        C333   1.436       .  S
O235        C243   1.259       .  A
O236        C243   1.259       .  A
C237        O244   1.258       .  A
C237        O238   1.260       .  A
C237        C337   1.436       .  S
C239        O241   1.259       .  A
C239        O245   1.259       .  A
C239        C348   1.433       .  S
C243        C341   1.433       .  S
In246       O248   2.248       .  S
In246       O257   2.243       .  S
In246       O251   2.253       .  S
In246       O258   2.248       .  S
C247        O253   1.260       .  A
C247        O255   1.258       .  A
C247        C340   1.436       .  S
O249        C256   1.259       .  A
C250        O257   1.258       .  A
C250        O251   1.260       .  A
C250        C336   1.436       .  S
C252        O254   1.259       .  A
C252        C325   1.433       .  S
C256        C329   1.433       .  S
In259       O261   2.248       .  S
In259       O262   2.242       .  S
In259       O270   2.243       .  S
In259       O264   2.253       .  S
In259       O266   2.253       .  S
In259       O267   2.242       .  S
In259       O268   2.243       .  S
In259       O271   2.248       .  S
C260        O266   1.260       .  A
C260        O268   1.258       .  A
C260        C312   1.436       .  S
O261        C269   1.259       .  A
O262        C269   1.259       .  A
C263        O270   1.258       .  A
C263        O264   1.260       .  A
C263        C313   1.436       .  S
C265        O267   1.259       .  A
C265        O271   1.259       .  A
C265        C321   1.433       .  S
C269        C320   1.433       .  S
In272       O274   2.248       .  S
In272       O275   2.242       .  S
In272       O283   2.243       .  S
In272       O277   2.253       .  S
In272       O280   2.242       .  S
In272       O284   2.248       .  S
C273        O279   1.260       .  A
C273        O281   1.258       .  A
C273        C316   1.436       .  S
O274        C282   1.259       .  A
O275        C282   1.259       .  A
C276        O283   1.258       .  A
C276        O277   1.260       .  A
C276        C309   1.436       .  S
C278        O280   1.259       .  A
C278        O284   1.259       .  A
C278        C304   1.433       .  S
C282        C305   1.433       .  S
C285        C308   1.443       .  S
C285        C286   1.409   1_455  A
C285        C290   1.400       .  A
C286        C332   1.443       .  S
C286        C287   1.400       .  A
C287        C404   1.400   1_554  A
C287        H292   1.085       .  S
C288        C328   1.443       .  S
C288        C403   1.400       .  A
C288        C289   1.409   1_655  A
C289        C301   1.443       .  S
C289        C406   1.400       .  A
C290        C405   1.400   1_554  A
C290        H291   1.085   1_554  S
C293        C345   1.443       .  S
C293        C294   1.409       .  A
C293        C414   1.400       .  A
C294        C324   1.443       .  S
C294        C411   1.400       .  A
C295        C410   1.400       .  A
C295        C296   1.400       .  A
C295        H300   1.085       .  S
C296        C317   1.443       .  S
C296        C297   1.409       .  A
C297        C344   1.443       .  S
C297        C298   1.400       .  A
C298        C409   1.400       .  A
C298        H299   1.085       .  S
C301        C302   1.205       .  T
C302        C303   1.410       .  S
C303        C304   1.204       .  T
C305        C306   1.204       .  T
C306        C307   1.410       .  S
C307        C308   1.205       .  T
C309        C310   1.206       .  T
C310        C311   1.413       .  S
C311        C312   1.206       .  T
C313        C314   1.206       .  T
C314        C315   1.413       .  S
C315        C316   1.206       .  T
C317        C318   1.205       .  T
C318        C319   1.410       .  S
C319        C320   1.204       .  T
C321        C322   1.204       .  T
C322        C323   1.410       .  S
C323        C324   1.205       .  T
C325        C326   1.204       .  T
C326        C327   1.410       .  S
C327        C328   1.205       .  T
C329        C330   1.204       .  T
C330        C331   1.410       .  S
C331        C332   1.205       .  T
C333        C334   1.206       .  T
C334        C335   1.413       .  S
C335        C336   1.206       .  T
C337        C338   1.206       .  T
C338        C339   1.413       .  S
C339        C340   1.206       .  T
C341        C342   1.204       .  T
C342        C343   1.410       .  S
C343        C344   1.205       .  T
C345        C346   1.205       .  T
C346        C347   1.410       .  S
C347        C348   1.204       .  T
In349       O351   2.248       .  S
In349       O352   2.242       .  S
In349       O360   2.243       .  S
In349       O354   2.253       .  S
In349       O356   2.253       .  S
In349       O357   2.242       .  S
In349       O358   2.243       .  S
In349       O361   2.248       .  S
C350        O356   1.260       .  A
C350        O358   1.258       .  A
C350        C449   1.436       .  S
O351        C359   1.259       .  A
O352        C359   1.259       .  A
C353        O360   1.258       .  A
C353        O354   1.260       .  A
C353        C453   1.436       .  S
C355        O357   1.259       .  A
C355        O361   1.259       .  A
C355        C464   1.433       .  S
C359        C457   1.433       .  S
In362       O364   2.248       .  S
In362       O373   2.243       .  S
In362       O367   2.253       .  S
In362       O374   2.248       .  S
C363        O369   1.260       .  A
C363        O371   1.258       .  A
C363        C456   1.436       .  S
O365        C372   1.259       .  A
C366        O373   1.258       .  A
C366        O367   1.260       .  A
C366        C452   1.436       .  S
C368        O370   1.259       .  A
C368        C441   1.433       .  S
C372        C445   1.433       .  S
In375       O377   2.248       .  S
In375       O378   2.242       .  S
In375       O386   2.243       .  S
In375       O380   2.253       .  S
In375       O382   2.253       .  S
In375       O383   2.242       .  S
In375       O384   2.243       .  S
In375       O387   2.248       .  S
C376        O382   1.260       .  A
C376        O384   1.258       .  A
C376        C428   1.436       .  S
O377        C385   1.259       .  A
O378        C385   1.259       .  A
C379        O386   1.258       .  A
C379        O380   1.260       .  A
C379        C429   1.436       .  S
C381        O383   1.259       .  A
C381        O387   1.259       .  A
C381        C437   1.433       .  S
C385        C436   1.433       .  S
In388       O390   2.248       .  S
In388       O391   2.242       .  S
In388       O399   2.243       .  S
In388       O393   2.253       .  S
In388       O396   2.242       .  S
In388       O400   2.248       .  S
C389        O395   1.260       .  A
C389        O397   1.258       .  A
C389        C432   1.436       .  S
O390        C398   1.259       .  A
O391        C398   1.259       .  A
C392        O399   1.258       .  A
C392        O393   1.260       .  A
C392        C425   1.436       .  S
C394        O396   1.259       .  A
C394        O400   1.259       .  A
C394        C420   1.433       .  S
C398        C421   1.433       .  S
C401        C424   1.443       .  S
C401        C402   1.409   1_455  A
C401        C406   1.400       .  A
C402        C448   1.443       .  S
C402        C403   1.400       .  A
C403        H408   1.085       .  S
C404        C444   1.443       .  S
C404        C405   1.409   1_655  A
C405        C417   1.443       .  S
C406        H407   1.085       .  S
C409        C461   1.443       .  S
C409        C410   1.409       .  A
C410        C440   1.443       .  S
C411        C412   1.400   1_554  A
C411        H416   1.085       .  S
C412        C433   1.443       .  S
C412        C413   1.409       .  A
C413        C460   1.443       .  S
C413        C414   1.400   1_556  A
C414        H415   1.085       .  S
C417        C418   1.205       .  T
C418        C419   1.410       .  S
C419        C420   1.204       .  T
C421        C422   1.204       .  T
C422        C423   1.410       .  S
C423        C424   1.205       .  T
C425        C426   1.206       .  T
C426        C427   1.413       .  S
C427        C428   1.206       .  T
C429        C430   1.206       .  T
C430        C431   1.413       .  S
C431        C432   1.206       .  T
C433        C434   1.205       .  T
C434        C435   1.410       .  S
C435        C436   1.204       .  T
C437        C438   1.204       .  T
C438        C439   1.410       .  S
C439        C440   1.205       .  T
C441        C442   1.204       .  T
C442        C443   1.410       .  S
C443        C444   1.205       .  T
C445        C446   1.204       .  T
C446        C447   1.410       .  S
C447        C448   1.205       .  T
C449        C450   1.206       .  T
C450        C451   1.413       .  S
C451        C452   1.206       .  T
C453        C454   1.206       .  T
C454        C455   1.413       .  S
C455        C456   1.206       .  T
C457        C458   1.204       .  T
C458        C459   1.410       .  S
C459        C460   1.205       .  T
C461        C462   1.205       .  T
C462        C463   1.410       .  S
C463        C464   1.204       .  T
