geometry optimzed in LAMMPS
_audit_creation_date              2020-11-30 
_audit_creation_method            'lammps2cif' 
_symmetry_space_group_name_H-M    'P1' 
_symmetry_Int_Tables_number       1 
_symmetry_cell_setting            triclinic 
loop_ 
_symmetry_equiv_pos_as_xyz 
  x,y,z 
_cell_length_a                    29.23344038 
_cell_length_b                    28.984599493726122 
_cell_length_c                    26.076643270850585 
_cell_angle_alpha                 89.82638247073503 
_cell_angle_beta                  90.22298445276142 
_cell_angle_gamma                 90.06528169328064 
loop_ 
_atom_site_label 
_atom_site_type_symbol 
_atom_site_fract_x 
_atom_site_fract_y 
_atom_site_fract_z 
_atom_site_charge 
O1          O  0.56130676  0.47645228  0.07904662    -0.79400
O2          O  0.57003869  0.52670276  0.42830753    -0.81100
O3          O  0.53934732  0.42595686  0.44241718    -0.81100
O4          O  0.55458944  0.59164701  0.05099353    -0.81100
O5          O  0.51976829  0.46720486  0.37293578    -0.81200
O6          O  0.52142674  0.55335812  0.11422846    -0.81100
O7          O  0.54564931  0.59660491  0.44632121    -0.81100
O8          O  0.54356283  0.41239701  0.04269250    -0.81100
C9          C  0.56808749  0.43365568  0.07394652     1.08600
C10         C  0.57407261  0.57022116  0.42484441     1.08500
C11         C  0.54143040  0.43388556  0.39332388     1.08600
C12         C  0.55182663  0.58108477  0.09809874     1.08500
O13         O  0.43361578  0.52639852  0.07691001    -0.81100
O14         O  0.44197930  0.47673870  0.42645784    -0.81200
O15         O  0.45667315  0.42955856  0.06318631    -0.81100
O16         O  0.44895491  0.59074002  0.45537757    -0.81100
O17         O  0.48251743  0.55324467  0.39235949    -0.81100
O18         O  0.48256742  0.46581475  0.13323696    -0.81100
O19         O  0.45812871  0.59638695  0.05944124    -0.81100
O20         O  0.45462958  0.41296220  0.46606470    -0.81100
Co21       Co  0.49671536  0.50032143  0.07369659     1.51500
Co22       Co  0.50697970  0.50037996  0.43253345     1.51700
Co23       Co  0.49969996  0.44855489  0.50359130     1.51600
Co24       Co  0.50183511  0.58979895  0.00299314     1.51500
O25         O  0.50202810  0.52070998  0.00309565    -1.43000
C26         C  0.42935173  0.56977977  0.08010535     1.08500
C27         C  0.43263102  0.43440782  0.43267807     1.08600
C28         C  0.45694159  0.43560263  0.11251368     1.08600
C29         C  0.45147176  0.57986422  0.40847366     1.08500
C30         C  0.59556340  0.89600397  0.11687706     0.41500
N31         N  0.58068699  0.95204093  0.06626492     0.00400
C32         C  0.38568001  0.08864896  0.06017523    -0.07500
H33         H  0.35439163  0.91309994  0.03757250     0.05900
C34         C  0.44851853  0.91629280  0.37524433    -0.07800
Co35       Co  0.49597644  0.00317735  0.09649121     0.74200
N36         N  0.41433325  0.95393834  0.05427976    -0.27000
Co37       Co  0.41763951  0.00362819  0.99674612     0.74100
C38         C  0.40507941  0.89603721  0.39118863     0.41600
N39         N  0.55764922  0.95059931  0.41472840     0.00000
N40         N  0.42091222  0.95294238  0.44030327     0.00100
N41         N  0.43714475  0.08769887  0.12526084    -0.47900
H42         H  0.53136348  0.90964599  0.16539767     0.05900
N43         N  0.44437472  0.95331131  0.09216712     0.00400
N44         N  0.42290289  0.05320536  0.43967603     0.00100
C45         C  0.40860565  0.10933565  0.38875460     0.41700
N46         N  0.58766754  0.95123158  0.45262663    -0.26500
C47         C  0.55500256  0.08695179  0.13176540    -0.07400
N48         N  0.61122876  0.91949217  0.07597295    -0.47600
N49         N  0.39302999  0.08640860  0.43020043    -0.47800
C50         C  0.59848568  0.10739681  0.11622760     0.41500
N51         N  0.44553072  0.05456017  0.09152703     0.00400
N52         N  0.58898036  0.05124254  0.45121381    -0.26500
N53         N  0.54648009  0.95210196  0.09924666    -0.27000
N54         N  0.55871005  0.05199510  0.41350964     0.00000
H55         H  0.64957957  0.09160428  0.46704913     0.05900
H56         H  0.47270608  0.09404015  0.34027733     0.06000
N57         N  0.41576939  0.05431163  0.05330555    -0.27000
N58         N  0.45536841  0.95156765  0.40768397    -0.26600
N59         N  0.58210261  0.05199495  0.06542394     0.00400
C60         C  0.39803587  0.89799379  0.10953012     0.41800
C61         C  0.61825856  0.91749427  0.44542656    -0.07900
N62         N  0.45686082  0.05244760  0.40648732    -0.26600
H63         H  0.47021992  0.90720761  0.34334194     0.05900
N64         N  0.43584971  0.92038489  0.12615023    -0.47900
H65         H  0.64753711  0.91052852  0.46968965     0.05900
C66         C  0.60529715  0.10706195  0.39588195     0.41600
C67         C  0.55285496  0.91748876  0.13284238    -0.07400
Co68       Co  0.58563623  0.00166332  0.00901873     0.73800
N69         N  0.56613596  0.91758488  0.38102076    -0.47600
C70         C  0.40030021  0.11101068  0.10740986     0.41900
N71         N  0.61349819  0.08381114  0.07513078    -0.47600
Co72       Co  0.50718758  0.00158862  0.40941120     0.73900
C73         C  0.45093040  0.08688544  0.37277072    -0.07900
C74         C  0.38354075  0.92031502  0.06191852    -0.07500
N75         N  0.54785263  0.05271854  0.09831566    -0.27000
N76         N  0.38966056  0.92079170  0.43123193    -0.47800
H77         H  0.35651985  0.09612897  0.03590749     0.05900
C78         C  0.62011485  0.08450056  0.44312616    -0.07900
Cl79       Cl  0.50161223  0.00252015  0.00293101    -0.50900
C80         C  0.60382104  0.89510913  0.39800832     0.41700
H81         H  0.53352278  0.09498999  0.16419940     0.05900
N82         N  0.56710838  0.08510233  0.37956703    -0.47600
C83         C  0.89555938  0.40675787  0.11531311     0.41500
N84         N  0.95099472  0.42261231  0.06526963     0.00400
C85         C  0.08355471  0.62110521  0.06145370    -0.07500
H86         H  0.91268217  0.65001824  0.03144130     0.05900
C87         C  0.92000316  0.55392480  0.37014737    -0.07800
Co88       Co  0.00082241  0.50850819  0.09606395     0.74200
N89         N  0.95192796  0.58927539  0.05046583    -0.27000
Co90       Co  0.00214051  0.58619370  0.99497745     0.74100
C91         C  0.89858555  0.59724114  0.38560002     0.41600
N92         N  0.95211639  0.44508900  0.41327133     0.00000
N93         N  0.95342338  0.58171669  0.43733833     0.00100
N94         N  0.08288844  0.56871715  0.12606059    -0.47900
H95         H  0.90895207  0.47109330  0.16482101     0.05900
N96         N  0.95136082  0.56044605  0.08977051     0.00400
N97         N  0.05252217  0.58134965  0.43969716     0.00100
C98         C  0.10924737  0.59651844  0.39127416     0.41700
N99         N  0.95162732  0.41522658  0.45158273    -0.26500
C100        C  0.08474504  0.45137441  0.13356933    -0.07400
N101        N  0.91871067  0.39161810  0.07421269    -0.47600
N102        N  0.08474502  0.61241029  0.43102357    -0.47800
C103        C  0.10677964  0.40833164  0.11840924     0.41500
N104        N  0.05098807  0.55958060  0.09135002     0.00400
N105        N  0.05144962  0.41415567  0.45344376    -0.26500
N106        N  0.95080228  0.45691224  0.09852556    -0.27000
N107        N  0.05210447  0.44358054  0.41471460     0.00000
H108        H  0.09184352  0.35386409  0.47171888     0.05900
H109        H  0.09769313  0.53088185  0.34321416     0.06000
N110        N  0.05079766  0.58957465  0.05317510    -0.27000
N111        N  0.95368376  0.54728801  0.40439987    -0.26600
N112        N  0.05072028  0.42223256  0.06732161     0.00400
C113        C  0.89798050  0.60879738  0.10485207     0.41800
C114        C  0.91636434  0.38614664  0.44475075    -0.07900
N115        N  0.05359466  0.54652709  0.40717244    -0.26600
H116        H  0.91262815  0.53195164  0.33770772     0.05900
N117        N  0.91989444  0.57150418  0.12405315    -0.47900
H118        H  0.90754635  0.35775266  0.46982390     0.05900
C119        C  0.10658417  0.39659700  0.39918265     0.41600
C120        C  0.91682851  0.44971483  0.13210755    -0.07400
Co121      Co  0.00123314  0.41758751  0.00954054     0.73800
N122        N  0.91851686  0.43815621  0.37992624    -0.47600
C123        C  0.10486580  0.60696121  0.10959627     0.41900
N124        N  0.08365221  0.39206962  0.07727884    -0.47600
Co125      Co  0.00297743  0.49550053  0.40868739     0.73900
C126        C  0.08887152  0.55284729  0.37513199    -0.07900
C127        C  0.91902267  0.62080536  0.05636470    -0.07500
N128        N  0.05046741  0.45702180  0.09989060    -0.27000
N129        N  0.92132076  0.61258892  0.42725128    -0.47800
H130        H  0.09070915  0.65066791  0.03737511     0.05900
C131        C  0.08489437  0.38310914  0.44705067    -0.07900
Cl132      Cl  0.00180729  0.50191560  0.00234739    -0.50900
C133        C  0.89430515  0.40161878  0.39727643     0.41700
H134        H  0.09229338  0.47400363  0.16539298     0.05900
N135        N  0.08430143  0.43389920  0.38080653    -0.47600
C136        C  0.29540162  0.29995131  0.20598541     0.44500
H137        H  0.29617028  0.30308556  0.16353458    -0.04500
C138        C  0.29330504  0.29203431  0.30523241     0.44600
H139        H  0.29232013  0.28822200  0.34762411    -0.04500
C140        C  0.32924928  0.33218955  0.23395349    -0.18200
C141        C  0.24876416  0.31172992  0.22933986    -0.18000
C142        C  0.30796070  0.25143749  0.22513518    -0.18300
C143        C  0.32771184  0.32821919  0.28658745    -0.18300
C144        C  0.24761876  0.30768044  0.28191780    -0.17900
C145        C  0.30738663  0.24766659  0.27768755    -0.18200
C146        C  0.70893885  0.29500342  0.20084939     0.44500
H147        H  0.70984427  0.29250034  0.15834767    -0.04500
C148        C  0.70540478  0.29948639  0.30026125     0.44600
H149        H  0.70444482  0.30131747  0.34277150    -0.04500
C150        C  0.67431227  0.33034548  0.22034102    -0.18200
C151        C  0.69495782  0.24943735  0.22665396    -0.18000
C152        C  0.75424645  0.31043434  0.22539839    -0.18300
C153        C  0.67142534  0.33217141  0.27311850    -0.18300
C154        C  0.69350370  0.25165764  0.27918965    -0.17900
C155        C  0.75218739  0.31301903  0.27816290    -0.18200
C156        C  0.28905875  0.71176330  0.20283095     0.44500
H157        H  0.28614638  0.71386259  0.16039923    -0.04500
C158        C  0.29424665  0.70729857  0.30211220     0.44600
H159        H  0.29610939  0.70644767  0.34464339    -0.04500
C160        C  0.32182162  0.67392449  0.22226535    -0.18200
C161        C  0.30687996  0.75626935  0.22763680    -0.18000
C162        C  0.24361329  0.69972816  0.22837025    -0.18300
C163        C  0.32494761  0.67187855  0.27506543    -0.18300
C164        C  0.30907813  0.75399505  0.28013936    -0.17900
C165        C  0.24635080  0.69738912  0.28089979    -0.18200
C166        C  0.70992452  0.71027685  0.20283527     0.44500
H167        H  0.70561817  0.71065791  0.16063081    -0.04500
C168        C  0.71633406  0.71225686  0.30207160     0.44600
H169        H  0.71966831  0.71340461  0.34451111    -0.04500
C170        C  0.67931685  0.67433833  0.22987823    -0.18200
C171        C  0.75879219  0.70025357  0.22242286    -0.18000
C172        C  0.69587400  0.75645980  0.22624369    -0.18300
C173        C  0.68285452  0.67533482  0.28248911    -0.18300
C174        C  0.76132107  0.70024990  0.27539035    -0.17900
C175        C  0.69879270  0.75753308  0.27868968    -0.18200
C176        C  0.17027124  0.60573860  0.17053311    -0.14300
C177        C  0.14081299  0.63106608  0.13873425     0.07900
C178        C  0.14584407  0.67924184  0.13550962    -0.14300
C179        C  0.17889431  0.70186420  0.16530812    -0.14300
C180        C  0.20750116  0.67647700  0.19803347     0.07900
C181        C  0.20416441  0.62816694  0.19875776    -0.14300
H182        H  0.16772875  0.56848586  0.17263095     0.11800
H183        H  0.12363675  0.69943536  0.11087004     0.11800
H184        H  0.18212898  0.73903794  0.16294515     0.11800
H185        H  0.22818473  0.60765101  0.22060643     0.11800
C186        C  0.18397229  0.60015502  0.34667545    -0.14300
C187        C  0.14532432  0.62282336  0.36547241     0.07900
C188        C  0.14103400  0.67076704  0.35892641    -0.14300
C189        C  0.17415593  0.69543657  0.33165462    -0.14300
C190        C  0.21245847  0.67255264  0.31232526     0.07900
C191        C  0.21788220  0.62511161  0.32136346    -0.14300
H192        H  0.18802539  0.56329272  0.35190136     0.11800
H193        H  0.11134948  0.68878648  0.37340961     0.11800
H194        H  0.16978003  0.73210445  0.32524560     0.11800
H195        H  0.24763371  0.60706387  0.30717417     0.11800
C196        C  0.13017181  0.34288012  0.33004852    -0.14300
C197        C  0.14199771  0.37135106  0.37137128     0.07900
C198        C  0.18794756  0.37644297  0.38533369    -0.14300
C199        C  0.22205251  0.35459574  0.35701414    -0.14300
C200        C  0.21062362  0.32686343  0.31463934     0.07900
C201        C  0.16423872  0.32028021  0.30223129    -0.14300
H202        H  0.09464526  0.33841877  0.31918157     0.11800
H203        H  0.19747106  0.39836833  0.41722265     0.11800
H204        H  0.25743531  0.36081086  0.36725335     0.11800
H205        H  0.15444338  0.29849300  0.27037007     0.11800
C206        C  0.18930882  0.31447421  0.16015503    -0.14300
C207        C  0.21392663  0.33690281  0.19894634     0.07900
C208        C  0.20513815  0.38354962  0.20912952    -0.14300
C209        C  0.17068684  0.40693225  0.18249196    -0.14300
C210        C  0.14476992  0.38419607  0.14475177     0.07900
C211        C  0.15485206  0.33793344  0.13326570    -0.14300
H212        H  0.19606350  0.27859032  0.15156729     0.11800
H213        H  0.22457386  0.40162506  0.23829110     0.11800
H214        H  0.16431213  0.44273208  0.19166287     0.11800
H215        H  0.13551970  0.31964505  0.10421975     0.11800
C216        C  0.81491658  0.38230041  0.12480236    -0.14300
C217        C  0.86028259  0.37994180  0.14162716     0.07900
C218        C  0.87187750  0.35107561  0.18283757    -0.14300
C219        C  0.83791315  0.32594258  0.20827055    -0.14300
C220        C  0.79174638  0.33056856  0.19377656     0.07900
C221        C  0.78089644  0.35787944  0.15069786    -0.14300
H222        H  0.80570208  0.40386524  0.09237358     0.11800
H223        H  0.90710927  0.34827225  0.19548062     0.11800
H224        H  0.84751046  0.30411516  0.24029219     0.11800
H225        H  0.74593894  0.36185208  0.13790101     0.11800
C226        C  0.83974897  0.33586909  0.38259747    -0.14300
C227        C  0.85545862  0.38023220  0.36949624     0.07900
C228        C  0.83467533  0.40360027  0.32829100    -0.14300
C229        C  0.80001606  0.38242230  0.29971673    -0.14300
C230        C  0.78647111  0.33695378  0.31082719     0.07900
C231        C  0.80549015  0.31443016  0.35345989    -0.14300
H232        H  0.85478802  0.31712903  0.41438746     0.11800
H233        H  0.84550443  0.43811161  0.31784905     0.11800
H234        H  0.78453340  0.40109641  0.26807730     0.11800
H235        H  0.79472402  0.27975090  0.36327955     0.11800
C236        C  0.83599881  0.60183026  0.32048515    -0.14300
C237        C  0.86212271  0.62304507  0.35899774     0.07900
C238        C  0.85360405  0.66943531  0.37143548    -0.14300
C239        C  0.82048364  0.69461178  0.34455484    -0.14300
C240        C  0.79569370  0.67371916  0.30488888     0.07900
C241        C  0.80263946  0.62682380  0.29409877    -0.14300
H242        H  0.84123256  0.56596329  0.31072508     0.11800
H243        H  0.87308735  0.68646923  0.40129602     0.11800
H244        H  0.81477506  0.73051761  0.35396519     0.11800
H245        H  0.78268793  0.60983743  0.26456435     0.11800
C246        C  0.87578251  0.65929692  0.17737506    -0.14300
C247        C  0.86403789  0.63622567  0.13220047     0.07900
C248        C  0.81998059  0.64087532  0.11204717    -0.14300
C249        C  0.78653036  0.66436163  0.13958550    -0.14300
C250        C  0.79652645  0.68383580  0.18781848     0.07900
C251        C  0.84269809  0.68439705  0.20390228    -0.14300
H252        H  0.91051322  0.65794220  0.19202435     0.11800
H253        H  0.81104420  0.62486652  0.07589314     0.11800
H254        H  0.75275226  0.66568317  0.12294797     0.11800
H255        H  0.85315016  0.70268899  0.23803624     0.11800
C256        C  0.67617753  0.14534232  0.36245462    -0.14300
C257        C  0.62836117  0.14492339  0.36813519     0.07900
C258        C  0.60252468  0.18084156  0.34669940    -0.14300
C259        C  0.62408190  0.21654532  0.31990677    -0.14300
C260        C  0.67156194  0.21580109  0.31179405     0.07900
C261        C  0.69757308  0.18022053  0.33376141    -0.14300
H262        H  0.69676235  0.11795037  0.37886386     0.11800
H263        H  0.56570803  0.18155105  0.35124668     0.11800
H264        H  0.60343119  0.24433444  0.30464779     0.11800
H265        H  0.73427408  0.17928296  0.32835536     0.11800
C266        C  0.59977851  0.17657643  0.17186815    -0.14300
C267        C  0.62375574  0.14451865  0.14233634     0.07900
C268        C  0.67165986  0.14799293  0.13880574    -0.14300
C269        C  0.69525984  0.18213766  0.16628597    -0.14300
C270        C  0.67106850  0.21323346  0.19696109     0.07900
C271        C  0.62317885  0.21109877  0.19803550    -0.14300
H272        H  0.56281424  0.17537433  0.17422267     0.11800
H273        H  0.69081418  0.12374111  0.11584068     0.11800
H274        H  0.73220387  0.18403779  0.16405362     0.11800
H275        H  0.60370505  0.23626377  0.21909176     0.11800
C276        C  0.31612973  0.16898102  0.19615669    -0.14300
C277        C  0.32821549  0.21573662  0.19089510     0.07900
C278        C  0.36322453  0.22779292  0.15652542    -0.14300
C279        C  0.38678471  0.19362697  0.12938311    -0.14300
C280        C  0.37538895  0.14697028  0.13575681     0.07900
C281        C  0.33948479  0.13489101  0.16871031    -0.14300
H282        H  0.28929724  0.15883266  0.22241640     0.11800
H283        H  0.37365517  0.26345543  0.15227444     0.11800
H284        H  0.41425722  0.20353965  0.10385023     0.11800
H285        H  0.32999663  0.09903070  0.17371659     0.11800
C286        C  0.31267411  0.18857424  0.34731816    -0.14300
C287        C  0.33298066  0.21189169  0.30620319     0.07900
C288        C  0.37910852  0.20363287  0.29460832    -0.14300
C289        C  0.40382552  0.17049538  0.32168579    -0.14300
C290        C  0.38316580  0.14586455  0.36172226     0.07900
C291        C  0.33761273  0.15567416  0.37494767    -0.14300
H292        H  0.27750631  0.19555771  0.35764968     0.11800
H293        H  0.39612325  0.22303803  0.26468610     0.11800
H294        H  0.43913162  0.16444054  0.31138508     0.11800
H295        H  0.32106894  0.13743980  0.40608831     0.11800
C296        C  0.63251864  0.78042249  0.16793660    -0.14300
C297        C  0.67223468  0.79216538  0.19539726     0.07900
C298        C  0.68694243  0.83823915  0.19639210    -0.14300
C299        C  0.66209611  0.87216539  0.17017369    -0.14300
C300        C  0.62171862  0.86046391  0.14403430     0.07900
C301        C  0.60700438  0.81452902  0.14303220    -0.14300
H302        H  0.62037954  0.74511813  0.16736230     0.11800
H303        H  0.71735644  0.84784525  0.21769921     0.11800
H304        H  0.67382878  0.90762058  0.17102907     0.11800
H305        H  0.57597660  0.80509435  0.12276189     0.11800
C306        C  0.67424511  0.84849818  0.37931015    -0.14300
C307        C  0.62795769  0.85861904  0.36933399     0.07900
C308        C  0.60491063  0.83414244  0.33080380    -0.14300
C309        C  0.62777408  0.80071887  0.30230203    -0.14300
C310        C  0.67454374  0.79210689  0.31055164     0.07900
C311        C  0.69736929  0.81545361  0.35006980    -0.14300
H312        H  0.69288949  0.86676940  0.40889426     0.11800
H313        H  0.56909083  0.84065685  0.32290653     0.11800
H314        H  0.60883907  0.78153741  0.27367142     0.11800
H315        H  0.73318028  0.80864232  0.35768254     0.11800
C316        C  0.33621135  0.86836266  0.34355970    -0.14300
C317        C  0.37919743  0.85914162  0.36544463     0.07900
C318        C  0.39768301  0.81468679  0.36173918    -0.14300
C319        C  0.37346151  0.77979892  0.33641316    -0.14300
C320        C  0.33143207  0.78952461  0.31248619     0.07900
C321        C  0.31283158  0.83395304  0.31639181    -0.14300
H322        H  0.32151385  0.90256562  0.34606455     0.11800
H323        H  0.43078436  0.80702362  0.37849914     0.11800
H324        H  0.38846364  0.74576044  0.33338014     0.11800
H325        H  0.28052790  0.84201504  0.29798905     0.11800
C326        C  0.39819790  0.83735598  0.17738271    -0.14300
C327        C  0.37483438  0.86061563  0.13802888     0.07900
C328        C  0.32927086  0.84830455  0.12704684    -0.14300
C329        C  0.30708291  0.81434836  0.15618094    -0.14300
C330        C  0.33010714  0.79230723  0.19661370     0.07900
C331        C  0.37629568  0.80304269  0.20577532    -0.14300
H332        H  0.43358761  0.84543850  0.18596284     0.11800
H333        H  0.31047047  0.86547333  0.09669299     0.11800
H334        H  0.27180596  0.80572503  0.14767842     0.11800
H335        H  0.39568984  0.78459917  0.23465590     0.11800
C336        C  0.34187175  0.62574391  0.35355750    -0.14300
C337        C  0.35623982  0.64239748  0.30554996     0.07900
C338        C  0.40188379  0.63586990  0.29064955    -0.14300
C339        C  0.43253820  0.61341426  0.32334731    -0.14300
C340        C  0.41840970  0.59906411  0.37215342     0.07900
C341        C  0.37281276  0.60476340  0.38683978    -0.14300
H342        H  0.30702529  0.63022964  0.36631178     0.11800
H343        H  0.41447658  0.64985038  0.25487034     0.11800
H344        H  0.46783347  0.60945580  0.31165899     0.11800
H345        H  0.36127367  0.59339310  0.42425223     0.11800
C346        C  0.37528065  0.57030235  0.15531457    -0.14300
C347        C  0.39447224  0.59213755  0.11227042     0.07900
C348        C  0.38714838  0.63963180  0.10494472    -0.14300
C349        C  0.36415790  0.66544961  0.14119932    -0.14300
C350        C  0.34637412  0.64444917  0.18514040     0.07900
C351        C  0.35082522  0.59635264  0.19139184    -0.14300
H352        H  0.38089876  0.53386954  0.16218419     0.11800
H353        H  0.40142838  0.65760234  0.07220018     0.11800
H354        H  0.36150882  0.70237099  0.13539088     0.11800
H355        H  0.33628872  0.57924298  0.22450935     0.11800
C356        C  0.62679082  0.57180642  0.34811599    -0.14300
C357        C  0.60832883  0.59310363  0.39174189     0.07900
C358        C  0.61613938  0.64051556  0.39926354    -0.14300
C359        C  0.63971223  0.66653568  0.36329971    -0.14300
C360        C  0.65713771  0.64594111  0.31908426     0.07900
C361        C  0.65137003  0.59810012  0.31207245    -0.14300
H362        H  0.62074270  0.53553655  0.34093573     0.11800
H363        H  0.60225778  0.65819684  0.43226287     0.11800
H364        H  0.64328889  0.70328371  0.36965373     0.11800
H365        H  0.66545198  0.58124817  0.27869135     0.11800
C366        C  0.59972376  0.64640219  0.21120160    -0.14300
C367        C  0.64670966  0.64583139  0.20017019     0.07900
C368        C  0.66213375  0.62165617  0.15715024    -0.14300
C369        C  0.63117231  0.60043843  0.12398817    -0.14300
C370        C  0.58425200  0.60168425  0.13445245     0.07900
C371        C  0.56869903  0.62378695  0.17888057    -0.14300
H372        H  0.58698548  0.66549246  0.24376749     0.11800
H373        H  0.69829660  0.61927645  0.14901016     0.11800
H374        H  0.64376712  0.58288287  0.09029470     0.11800
H375        H  0.53244373  0.62515359  0.18734166     0.11800
C376        C  0.58631360  0.36284175  0.37643852    -0.14300
C377        C  0.57252050  0.40699993  0.36134921     0.07900
C378        C  0.59153370  0.42713291  0.31731470    -0.14300
C379        C  0.62422205  0.40353165  0.28900952    -0.14300
C380        C  0.63714212  0.35859824  0.30287694     0.07900
C381        C  0.61808322  0.33878009  0.34727300    -0.14300
H382        H  0.57256987  0.34695614  0.41073175     0.11800
H383        H  0.58250190  0.46192699  0.30586588     0.11800
H384        H  0.64033737  0.42147542  0.25783584     0.11800
H385        H  0.62776679  0.30467492  0.35998845     0.11800
C386        C  0.58425359  0.36273533  0.12348368    -0.14300
C387        C  0.59821091  0.40727591  0.10850617     0.07900
C388        C  0.63757474  0.42652702  0.13055319    -0.14300
C389        C  0.66272078  0.40122963  0.16678728    -0.14300
C390        C  0.64725741  0.35773011  0.18339940     0.07900
C391        C  0.60838575  0.33837328  0.16085403    -0.14300
H392        H  0.55357360  0.34730437  0.10755420     0.11800
H393        H  0.64877848  0.46081690  0.11975204     0.11800
H394        H  0.69355045  0.41604740  0.18302744     0.11800
H395        H  0.59659390  0.30452824  0.17217663     0.11800
C396        C  0.35590511  0.40459129  0.31995052    -0.14300
C397        C  0.35411542  0.35626225  0.32386270     0.07900
C398        C  0.37538366  0.33443553  0.36557557    -0.14300
C399        C  0.39872337  0.36031017  0.40232706    -0.14300
C400        C  0.40134791  0.40874671  0.39822499     0.07900
C401        C  0.37961252  0.43062717  0.35666666    -0.14300
H402        H  0.33893502  0.42215749  0.28851757     0.11800
H403        H  0.37452042  0.29719740  0.36933192     0.11800
H404        H  0.41590651  0.34212382  0.43320425     0.11800
H405        H  0.38173639  0.46770145  0.35198598     0.11800
C406        C  0.43911298  0.38867055  0.18965274    -0.14300
C407        C  0.42449717  0.41009459  0.14431951     0.07900
C408        C  0.37832590  0.40785086  0.12982495    -0.14300
C409        C  0.34706295  0.38400862  0.16027471    -0.14300
C410        C  0.36176167  0.36132865  0.20500149     0.07900
C411        C  0.40811626  0.36361494  0.21929402    -0.14300
H412        H  0.47473525  0.39013474  0.20116837     0.11800
H413        H  0.36644182  0.42497306  0.09527193     0.11800
H414        H  0.31145278  0.38301245  0.14867631     0.11800
H415        H  0.42063220  0.34518117  0.25264745     0.11800
O416        O  0.56130616  0.47645240  0.57904663    -0.79400
O417        O  0.57003914  0.52670261  0.92830723    -0.81100
O418        O  0.53934769  0.42595711  0.94241739    -0.81100
O419        O  0.55458818  0.59164719  0.55099348    -0.81100
O420        O  0.51976839  0.46720481  0.87293583    -0.81200
O421        O  0.52142585  0.55335801  0.61422850    -0.81100
O422        O  0.54565036  0.59660490  0.94632127    -0.81100
O423        O  0.54356284  0.41239706  0.54269226    -0.81100
C424        C  0.56808725  0.43365587  0.57394640     1.08600
C425        C  0.57407333  0.57022098  0.92484418     1.08500
C426        C  0.54143070  0.43388568  0.89332406     1.08600
C427        C  0.55182554  0.58108487  0.59809868     1.08500
O428        O  0.43361493  0.52639803  0.57691021    -0.81100
O429        O  0.44197951  0.47673903  0.92645794    -0.81200
O430        O  0.45667301  0.42955783  0.56318608    -0.81100
O431        O  0.44895603  0.59074071  0.95537779    -0.81100
O432        O  0.48251794  0.55324497  0.89235954    -0.81100
O433        O  0.48256679  0.46581422  0.63323684    -0.81100
O434        O  0.45812746  0.59638652  0.55944104    -0.81100
O435        O  0.45462985  0.41296254  0.96606478    -0.81100
Co436      Co  0.49671464  0.50032119  0.57369662     1.51500
Co437      Co  0.50698004  0.50038011  0.93253342     1.51700
Co438      Co  0.49970025  0.44855515  0.00359145     1.51600
Co439      Co  0.50183394  0.58979871  0.50299301     1.51500
O440        O  0.50202740  0.52070976  0.50309567    -1.43000
C441        C  0.42935069  0.56977929  0.58010542     1.08500
C442        C  0.43263129  0.43440813  0.93267811     1.08600
C443        C  0.45694127  0.43560187  0.61251346     1.08600
C444        C  0.45147258  0.57986483  0.90847387     1.08500
C445        C  0.59556191  0.89600368  0.61687693     0.41500
N446        N  0.58068569  0.95204072  0.56626483     0.00400
C447        C  0.38567899  0.08864910  0.56017545    -0.07500
H448        H  0.35439033  0.91310055  0.53757305     0.05900
C449        C  0.44851977  0.91629262  0.87524434    -0.07800
Co450      Co  0.49597555  0.00317766  0.59649133     0.74200
N451        N  0.41433220  0.95393873  0.55427999    -0.27000
Co452      Co  0.41763852  0.00362844  0.49674618     0.74100
C453        C  0.40508059  0.89603702  0.89118855     0.41600
N454        N  0.55765038  0.95059957  0.91472829     0.00000
N455        N  0.42091333  0.95294226  0.94030314     0.00100
N456        N  0.43714365  0.08769881  0.62526115    -0.47900
H457        H  0.53136291  0.90964692  0.66539862     0.05900
N458        N  0.44437373  0.95331169  0.59216730     0.00400
N459        N  0.42290376  0.05320519  0.93967611     0.00100
C460        C  0.40860627  0.10933558  0.88875490     0.41700
N461        N  0.58766873  0.95123179  0.95262651    -0.26500
C462        C  0.55500188  0.08695211  0.63176521    -0.07400
N463        N  0.61122707  0.91949149  0.57597246    -0.47600
N464        N  0.39303075  0.08640836  0.93020067    -0.47800
C465        C  0.59848505  0.10739702  0.61622730     0.41500
N466        N  0.44552984  0.05456041  0.59152707     0.00400
N467        N  0.58898125  0.05124286  0.95121392    -0.26500
N468        N  0.54647915  0.95210227  0.59924701    -0.27000
N469        N  0.55871092  0.05199541  0.91350976     0.00000
H470        H  0.64958021  0.09160493  0.96704944     0.05900
H471        H  0.47270676  0.09404045  0.84027748     0.06000
N472        N  0.41576851  0.05431193  0.55330556    -0.27000
N473        N  0.45536955  0.95156756  0.90768390    -0.26600
N474        N  0.58210180  0.05199497  0.56542386     0.00400
C475        C  0.39803467  0.89799445  0.60953060     0.41800
C476        C  0.61825969  0.91749440  0.94542637    -0.07900
N477        N  0.45686167  0.05244762  0.90648737    -0.26600
H478        H  0.47022122  0.90720741  0.84334197     0.05900
N479        N  0.43584864  0.92038539  0.62615053    -0.47900
H480        H  0.64753817  0.91052855  0.96968943     0.05900
C481        C  0.60529772  0.10706263  0.89588233     0.41600
C482        C  0.55285415  0.91748933  0.63284304    -0.07400
Co483      Co  0.58563516  0.00166314  0.50901871     0.73800
N484        N  0.56613704  0.91758513  0.88102063    -0.47600
C485        C  0.40029902  0.11101053  0.60741030     0.41900
N486        N  0.61349746  0.08381116  0.57513055    -0.47600
Co487      Co  0.50718860  0.00158875  0.90941118     0.73900
C488        C  0.45093109  0.08688555  0.87277089    -0.07900
C489        C  0.38353955  0.92031558  0.56191896    -0.07500
N490        N  0.54785184  0.05271877  0.59831559    -0.27000
N491        N  0.38966170  0.92079157  0.93123179    -0.47800
H492        H  0.35651873  0.09612901  0.53590784     0.05900
C493        C  0.62011555  0.08450111  0.94312642    -0.07900
Cl494      Cl  0.50161122  0.00252023  0.50293106    -0.50900
C495        C  0.60382207  0.89510928  0.89800811     0.41700
H496        H  0.53352215  0.09499045  0.66419915     0.05900
N497        N  0.56710907  0.08510284  0.87956732    -0.47600
C498        C  0.89555953  0.40675751  0.61531152     0.41500
N499        N  0.95099538  0.42261191  0.56526869     0.00400
C500        C  0.08355416  0.62110587  0.56145384    -0.07500
H501        H  0.91268189  0.65001785  0.53144077     0.05900
C502        C  0.92000350  0.55392480  0.87014744    -0.07800
Co503      Co  0.00082257  0.50850804  0.59606326     0.74200
N504        N  0.95192789  0.58927513  0.55046533    -0.27000
Co505      Co  0.00214049  0.58619375  0.49497704     0.74100
C506        C  0.89858591  0.59724125  0.88559978     0.41600
N507        N  0.95211606  0.44508906  0.91327205     0.00000
N508        N  0.95342341  0.58171674  0.93733860     0.00100
N509        N  0.08288792  0.56871770  0.62606060    -0.47900
H510        H  0.90895173  0.47109303  0.66481937     0.05900
N511        N  0.95136073  0.56044567  0.58976989     0.00400
N512        N  0.05252226  0.58134932  0.93969766     0.00100
C513        C  0.10924775  0.59651782  0.89127495     0.41700
N514        N  0.95162666  0.41522676  0.95158356    -0.26500
C515        C  0.08474536  0.45137453  0.63356874    -0.07400
N516        N  0.91871124  0.39161769  0.57421143    -0.47600
N517        N  0.08474523  0.61240984  0.93102412    -0.47800
C518        C  0.10678018  0.40833184  0.61840872     0.41500
N519        N  0.05098796  0.55958082  0.59134968     0.00400
N520        N  0.05144896  0.41415529  0.95344482    -0.26500
N521        N  0.95080263  0.45691186  0.59852456    -0.27000
N522        N  0.05210411  0.44358012  0.91471564     0.00000
H523        H  0.09184259  0.35386364  0.97172028     0.05900
H524        H  0.09769353  0.53088116  0.84321516     0.06000
N525        N  0.05079753  0.58957494  0.55317482    -0.27000
N526        N  0.95368387  0.54728800  0.90440022    -0.26600
N527        N  0.05072101  0.42223271  0.56732074     0.00400
C528        C  0.89798013  0.60879670  0.60485133     0.41800
C529        C  0.91636361  0.38614693  0.94475141    -0.07900
N530        N  0.05359480  0.54652666  0.90717310    -0.26600
H531        H  0.91262865  0.53195162  0.83770786     0.05900
N532        N  0.91989418  0.57150355  0.62405241    -0.47900
H533        H  0.90754543  0.35775298  0.96982453     0.05900
C534        C  0.10658372  0.39659637  0.89918408     0.41600
C535        C  0.91682852  0.44971449  0.63210615    -0.07400
Co536      Co  0.00123386  0.41758749  0.50953962     0.73800
N537        N  0.91851674  0.43815628  0.87992671    -0.47600
C538        C  0.10486500  0.60696206  0.60959665     0.41900
N539        N  0.08365298  0.39206983  0.57727812    -0.47600
Co540      Co  0.00297734  0.49550032  0.90868809     0.73900
C541        C  0.08887185  0.55284666  0.87513280    -0.07900
C542        C  0.91902245  0.62080492  0.55636414    -0.07500
N543        N  0.05046786  0.45702188  0.59988983    -0.27000
N544        N  0.92132092  0.61258906  0.92725120    -0.47800
H545        H  0.09070837  0.65066877  0.53737543     0.05900
C546        C  0.08489363  0.38310861  0.94705198    -0.07900
Cl547      Cl  0.00180757  0.50191563  0.50234671    -0.50900
C548        C  0.89430480  0.40161899  0.89727682     0.41700
H549        H  0.09229341  0.47400367  0.66539254     0.05900
N550        N  0.08430121  0.43389862  0.88080778    -0.47600
C551        C  0.29540095  0.29995088  0.70598641     0.44500
H552        H  0.29616929  0.30308485  0.66353555    -0.04500
C553        C  0.29330497  0.29203446  0.80523347     0.44600
H554        H  0.29232038  0.28822241  0.84762523    -0.04500
C555        C  0.32924889  0.33218921  0.73395398    -0.18200
C556        C  0.24876365  0.31172975  0.72934110    -0.18000
C557        C  0.30796004  0.25143712  0.72513643    -0.18300
C558        C  0.32771170  0.32821918  0.78658799    -0.18300
C559        C  0.24761855  0.30768049  0.78191907    -0.17900
C560        C  0.30738634  0.24766655  0.77768885    -0.18200
C561        C  0.70893871  0.29500390  0.70084878     0.44500
H562        H  0.70984383  0.29250092  0.65834704    -0.04500
C563        C  0.70540535  0.29948674  0.80026067     0.44600
H564        H  0.70444572  0.30131775  0.84277092    -0.04500
C565        C  0.67431252  0.33034619  0.72034080    -0.18200
C566        C  0.69495748  0.24943787  0.72665337    -0.18000
C567        C  0.75424658  0.31043448  0.72539741    -0.18300
C568        C  0.67142593  0.33217206  0.77311832    -0.18300
C569        C  0.69350374  0.25165811  0.77918909    -0.17900
C570        C  0.75218791  0.31301908  0.77816194    -0.18200
C571        C  0.28905847  0.71176345  0.70283154     0.44500
H572        H  0.28614598  0.71386277  0.66039984    -0.04500
C573        C  0.29424668  0.70729876  0.80211277     0.44600
H574        H  0.29610953  0.70644801  0.84464396    -0.04500
C575        C  0.32182146  0.67392464  0.72226586    -0.18200
C576        C  0.30687964  0.75626954  0.72763734    -0.18000
C577        C  0.24361307  0.69972824  0.72837099    -0.18300
C578        C  0.32494766  0.67187879  0.77506596    -0.18300
C579        C  0.30907808  0.75399522  0.78013987    -0.17900
C580        C  0.24635077  0.69738916  0.78090053    -0.18200
C581        C  0.70992443  0.71027675  0.70283445     0.44500
H582        H  0.70561827  0.71065772  0.66062995    -0.04500
C583        C  0.71633423  0.71225651  0.80207074     0.44600
H584        H  0.71966864  0.71340412  0.84451024    -0.04500
C585        C  0.67931663  0.67433833  0.72987738    -0.18200
C586        C  0.75879209  0.70025322  0.72242191    -0.18000
C587        C  0.69587402  0.75645983  0.72624298    -0.18300
C588        C  0.68285447  0.67533467  0.78248824    -0.18300
C589        C  0.76132114  0.70024944  0.77538936    -0.17900
C590        C  0.69879296  0.75753287  0.77868905    -0.18200
C591        C  0.17026918  0.60573938  0.67053517    -0.14300
C592        C  0.14081219  0.63106686  0.63873483     0.07900
C593        C  0.14584469  0.67924242  0.63550886    -0.14300
C594        C  0.17889509  0.70186459  0.66530738    -0.14300
C595        C  0.20750066  0.67647739  0.69803420     0.07900
C596        C  0.20416248  0.62816745  0.69875987    -0.14300
H597        H  0.16772569  0.56848678  0.67263408     0.11800
H598        H  0.12363841  0.69943598  0.61086811     0.11800
H599        H  0.18213090  0.73903814  0.66294328     0.11800
H600        H  0.22818192  0.60765130  0.72060952     0.11800
C601        C  0.18397322  0.60015498  0.84667733    -0.14300
C602        C  0.14532455  0.62282285  0.86547307     0.07900
C603        C  0.14103337  0.67076637  0.85892589    -0.14300
C604        C  0.17415523  0.69543604  0.83165417    -0.14300
C605        C  0.21245855  0.67255260  0.81232613     0.07900
C606        C  0.21788307  0.62511177  0.82136544    -0.14300
H607        H  0.18802695  0.56329267  0.85190409     0.11800
H608        H  0.11134841  0.68878537  0.87340806     0.11800
H609        H  0.16977864  0.73210387  0.82524419     0.11800
H610        H  0.24763488  0.60706441  0.80717689     0.11800
C611        C  0.13017152  0.34287943  0.83005014    -0.14300
C612        C  0.14199734  0.37135034  0.87137295     0.07900
C613        C  0.18794716  0.37644240  0.88533535    -0.14300
C614        C  0.22205220  0.35459541  0.85701570    -0.14300
C615        C  0.21062339  0.32686320  0.81464078     0.07900
C616        C  0.16423851  0.32027976  0.80223281    -0.14300
H617        H  0.09464501  0.33841798  0.81918318     0.11800
H618        H  0.19747062  0.39836780  0.91722439     0.11800
H619        H  0.25743494  0.36081067  0.86725484     0.11800
H620        H  0.15444323  0.29849258  0.77037147     0.11800
C621        C  0.18930896  0.31447425  0.66015544    -0.14300
C622        C  0.21392605  0.33690261  0.69894754     0.07900
C623        C  0.20513721  0.38354930  0.70913096    -0.14300
C624        C  0.17068630  0.40693206  0.68249285    -0.14300
C625        C  0.14477010  0.38419611  0.64475182     0.07900
C626        C  0.15485259  0.33793361  0.63326559    -0.14300
H627        H  0.19606397  0.27859057  0.65156742     0.11800
H628        H  0.22457246  0.40162466  0.73829310     0.11800
H629        H  0.16431137  0.44273172  0.69166392     0.11800
H630        H  0.13552077  0.31964534  0.60421893     0.11800
C631        C  0.81491647  0.38230084  0.62480140    -0.14300
C632        C  0.86028267  0.37994140  0.64162546     0.07900
C633        C  0.87187765  0.35107462  0.68283534    -0.14300
C634        C  0.83791325  0.32594187  0.70826860    -0.14300
C635        C  0.79174638  0.33056857  0.69377529     0.07900
C636        C  0.78089632  0.35788002  0.65069707    -0.14300
H637        H  0.80570188  0.40386619  0.59237309     0.11800
H638        H  0.90710955  0.34827067  0.69547788     0.11800
H639        H  0.84751060  0.30411413  0.74028993     0.11800
H640        H  0.74593867  0.36185321  0.63790077     0.11800
C641        C  0.83974873  0.33586929  0.88259736    -0.14300
C642        C  0.85545867  0.38023227  0.86949605     0.07900
C643        C  0.83467613  0.40360008  0.82829017    -0.14300
C644        C  0.80001722  0.38242203  0.79971541    -0.14300
C645        C  0.78647189  0.33695365  0.81082608     0.07900
C646        C  0.80549027  0.31443028  0.85345931    -0.14300
H647        H  0.85478718  0.31712947  0.91438776     0.11800
H648        H  0.84550547  0.43811137  0.81784811     0.11800
H649        H  0.78453503  0.40109600  0.76807572     0.11800
H650        H  0.79472378  0.27975112  0.86327919     0.11800
C651        C  0.83599984  0.60183033  0.82048400    -0.14300
C652        C  0.86212313  0.62304508  0.85899714     0.07900
C653        C  0.85360387  0.66943516  0.87143513    -0.14300
C654        C  0.82048343  0.69461146  0.84455428    -0.14300
C655        C  0.79569405  0.67371890  0.80488785     0.07900
C656        C  0.80264046  0.62682368  0.79409742    -0.14300
H657        H  0.84123404  0.56596341  0.81072364     0.11800
H658        H  0.87308664  0.68646904  0.90129605     0.11800
H659        H  0.81477435  0.73051720  0.85396495     0.11800
H660        H  0.78268939  0.60983730  0.76456271     0.11800
C661        C  0.87578229  0.65929690  0.67737375    -0.14300
C662        C  0.86403750  0.63622492  0.63219970     0.07900
C663        C  0.81998001  0.64087398  0.61204669    -0.14300
C664        C  0.78652988  0.66436049  0.63958489    -0.14300
C665        C  0.79652616  0.68383538  0.68781741     0.07900
C666        C  0.84269790  0.68439715  0.70390087    -0.14300
H667        H  0.91051321  0.65794263  0.69202277     0.11800
H668        H  0.81104351  0.62486464  0.57589307     0.11800
H669        H  0.75275143  0.66568162  0.62294757     0.11800
H670        H  0.85314999  0.70268949  0.73803448     0.11800
C671        C  0.67617796  0.14534305  0.86245463    -0.14300
C672        C  0.62836163  0.14492416  0.86813555     0.07900
C673        C  0.60252507  0.18084237  0.84669993    -0.14300
C674        C  0.62408216  0.21654604  0.81990700    -0.14300
C675        C  0.67156213  0.21580165  0.81179375     0.07900
C676        C  0.69757337  0.18022116  0.83376110    -0.14300
H677        H  0.69676285  0.11795112  0.87886378     0.11800
H678        H  0.56570845  0.18155193  0.85124753     0.11800
H679        H  0.60343141  0.24433521  0.80464821     0.11800
H680        H  0.73427433  0.17928353  0.82835478     0.11800
C681        C  0.59977806  0.17657643  0.67186833    -0.14300
C682        C  0.62375516  0.14451902  0.64233588     0.07900
C683        C  0.67165921  0.14799382  0.63880451    -0.14300
C684        C  0.69525924  0.18213860  0.66628466    -0.14300
C685        C  0.67106806  0.21323395  0.69696053     0.07900
C686        C  0.62317843  0.21109883  0.69803562    -0.14300
H687        H  0.56281383  0.17537403  0.67422343     0.11800
H688        H  0.69081345  0.12374237  0.61583893     0.11800
H689        H  0.73220323  0.18403910  0.66405168     0.11800
H690        H  0.60370468  0.23626357  0.71909224     0.11800
C691        C  0.31613012  0.16898022  0.69615950    -0.14300
C692        C  0.32821457  0.21573605  0.69089638     0.07900
C693        C  0.36322205  0.22779260  0.65652481    -0.14300
C694        C  0.38678198  0.19362679  0.62938208    -0.14300
C695        C  0.37538772  0.14696993  0.63575744     0.07900
C696        C  0.33948513  0.13489030  0.66871295    -0.14300
H697        H  0.28929874  0.15883162  0.72242059     0.11800
H698        H  0.37365171  0.26345526  0.65227255     0.11800
H699        H  0.41425329  0.20353972  0.60384766     0.11800
H700        H  0.32999815  0.09902986  0.67372053     0.11800
C701        C  0.31267437  0.18857414  0.84731939    -0.14300
C702        C  0.33298073  0.21189189  0.80620449     0.07900
C703        C  0.37910856  0.20363327  0.79460936    -0.14300
C704        C  0.40382578  0.17049571  0.82168650    -0.14300
C705        C  0.38316625  0.14586457  0.86172288     0.07900
C706        C  0.33761320  0.15567397  0.87494853    -0.14300
H707        H  0.27750664  0.19555738  0.85765102     0.11800
H708        H  0.39612308  0.22303858  0.76468703     0.11800
H709        H  0.43913179  0.16444099  0.81138560     0.11800
H710        H  0.32106952  0.13743933  0.90608915     0.11800
C711        C  0.63252600  0.78042085  0.66792436    -0.14300
C712        C  0.67223511  0.79216604  0.69539655     0.07900
C713        C  0.68693518  0.83824220  0.69640310    -0.14300
C714        C  0.66208787  0.87216837  0.67018580    -0.14300
C715        C  0.62171748  0.86046405  0.64403432     0.07900
C716        C  0.60701129  0.81452681  0.64301955    -0.14300
H717        H  0.62039237  0.74511473  0.66734081     0.11800
H718        H  0.71734368  0.84785026  0.71771900     0.11800
H719        H  0.67381441  0.90762542  0.67105078     0.11800
H720        H  0.57598911  0.80509002  0.62273968     0.11800
C721        C  0.67424554  0.84849715  0.87931051    -0.14300
C722        C  0.62795844  0.85861894  0.86933379     0.07900
C723        C  0.60491142  0.83414313  0.83080287    -0.14300
C724        C  0.62777467  0.80071949  0.80230097    -0.14300
C725        C  0.67454402  0.79210644  0.81055140     0.07900
C726        C  0.69736949  0.81545240  0.85007021    -0.14300
H727        H  0.69288996  0.86676785  0.90889514     0.11800
H728        H  0.56909195  0.84065839  0.82290497     0.11800
H729        H  0.60883987  0.78153911  0.77366907     0.11800
H730        H  0.73318022  0.80864047  0.85768334     0.11800
C731        C  0.33621042  0.86836124  0.84356419    -0.14300
C732        C  0.37919858  0.85914136  0.86544463     0.07900
C733        C  0.39768601  0.81468761  0.86173494    -0.14300
C734        C  0.37346427  0.77979969  0.83640926    -0.14300
C735        C  0.33143273  0.78952446  0.81248648     0.07900
C736        C  0.31283039  0.83395177  0.81639631    -0.14300
H737        H  0.32151141  0.90256334  0.84607241     0.11800
H738        H  0.43078888  0.80702526  0.87849147     0.11800
H739        H  0.38846770  0.74576203  0.83337311     0.11800
H740        H  0.28052503  0.84201300  0.79799695     0.11800
C741        C  0.39819748  0.83735549  0.67738184    -0.14300
C742        C  0.37483324  0.86061629  0.63802940     0.07900
C743        C  0.32926919  0.84830628  0.62704874    -0.14300
C744        C  0.30708145  0.81434994  0.65618285    -0.14300
C745        C  0.33010651  0.79230757  0.69661420     0.07900
C746        C  0.37629548  0.80304201  0.70577436    -0.14300
H747        H  0.43358754  0.84543717  0.68596082     0.11800
H748        H  0.31046821  0.86547607  0.59669591     0.11800
H749        H  0.27180415  0.80572742  0.64768146     0.11800
H750        H  0.39569024  0.78459739  0.73465370     0.11800
C751        C  0.34187245  0.62574497  0.85355852    -0.14300
C752        C  0.35624011  0.64239793  0.80555053     0.07900
C753        C  0.40188391  0.63586997  0.79064970    -0.14300
C754        C  0.43253852  0.61341446  0.82334738    -0.14300
C755        C  0.41841040  0.59906486  0.87215384     0.07900
C756        C  0.37281367  0.60476466  0.88684068    -0.14300
H757        H  0.30702622  0.63023096  0.86631319     0.11800
H758        H  0.41447647  0.64985003  0.75487014     0.11800
H759        H  0.46783360  0.60945563  0.81165868     0.11800
H760        H  0.36127485  0.59339480  0.92425346     0.11800
C761        C  0.37528005  0.57030214  0.65531513    -0.14300
C762        C  0.39447127  0.59213710  0.61227064     0.07900
C763        C  0.38714726  0.63963133  0.60494469    -0.14300
C764        C  0.36415708  0.66544931  0.64119940    -0.14300
C765        C  0.34637370  0.64444913  0.68514082     0.07900
C766        C  0.35082488  0.59635261  0.69139250    -0.14300
H767        H  0.38089829  0.53386930  0.66218498     0.11800
H768        H  0.40142691  0.65760166  0.57219995     0.11800
H769        H  0.36150795  0.70237076  0.63539072     0.11800
H770        H  0.33628869  0.57924315  0.72451021     0.11800
C771        C  0.62679058  0.57180626  0.84811496    -0.14300
C772        C  0.60832944  0.59310330  0.89174143     0.07900
C773        C  0.61614055  0.64051507  0.89926341    -0.14300
C774        C  0.63971303  0.66653528  0.86329939    -0.14300
C775        C  0.65713774  0.64594091  0.81908342     0.07900
C776        C  0.65136952  0.59810003  0.81207125    -0.14300
H777        H  0.62074199  0.53553658  0.84093444     0.11800
H778        H  0.60225957  0.65819623  0.93226321     0.11800
H779        H  0.64329003  0.70328319  0.86965369     0.11800
H780        H  0.66545090  0.58124816  0.77868971     0.11800
C781        C  0.59972320  0.64640315  0.71120071    -0.14300
C782        C  0.64670913  0.64583164  0.70016943     0.07900
C783        C  0.66213298  0.62165576  0.65714985    -0.14300
C784        C  0.63117135  0.60043798  0.62398805    -0.14300
C785        C  0.58425104  0.60168442  0.63445222     0.07900
C786        C  0.56869824  0.62378787  0.67887995    -0.14300
H787        H  0.58698509  0.66549391  0.74376640     0.11800
H788        H  0.69829589  0.61927545  0.64900992     0.11800
H789        H  0.64376602  0.58288185  0.59029483     0.11800
H790        H  0.53244297  0.62515501  0.68734095     0.11800
C791        C  0.58631475  0.36284230  0.87643909    -0.14300
C792        C  0.57252103  0.40700023  0.86134948     0.07900
C793        C  0.59153383  0.42713314  0.81731477    -0.14300
C794        C  0.62422235  0.40353213  0.78900951    -0.14300
C795        C  0.63714287  0.35859885  0.80287713     0.07900
C796        C  0.61808446  0.33878079  0.84727348    -0.14300
H797        H  0.57257141  0.34695679  0.91073241     0.11800
H798        H  0.58250158  0.46192712  0.80586566     0.11800
H799        H  0.64033713  0.42147574  0.75783602     0.11800
H800        H  0.62776832  0.30467569  0.85998906     0.11800
C801        C  0.58425375  0.36273563  0.62348353    -0.14300
C802        C  0.59821078  0.40727629  0.60850607     0.07900
C803        C  0.63757445  0.42652768  0.63055319    -0.14300
C804        C  0.66272060  0.40123042  0.66678730    -0.14300
C805        C  0.64725747  0.35773083  0.68339938     0.07900
C806        C  0.60838598  0.33837371  0.66085391    -0.14300
H807        H  0.55357384  0.34730443  0.60755394     0.11800
H808        H  0.64877797  0.46081758  0.61975209     0.11800
H809        H  0.69355025  0.41604839  0.68302751     0.11800
H810        H  0.59659443  0.30452869  0.67217640     0.11800
C811        C  0.35590440  0.40459142  0.81995126    -0.14300
C812        C  0.35411556  0.35626234  0.82386287     0.07900
C813        C  0.37538492  0.33443553  0.86557498    -0.14300
C814        C  0.39872477  0.36031022  0.90232631    -0.14300
C815        C  0.40134831  0.40874685  0.89822496     0.07900
C816        C  0.37961189  0.43062739  0.85666731    -0.14300
H817        H  0.33893346  0.42215768  0.78851873     0.11800
H818        H  0.37452235  0.29719749  0.86933083     0.11800
H819        H  0.41590881  0.34212374  0.93320299     0.11800
H820        H  0.38173495  0.46770163  0.85198719     0.11800
C821        C  0.43911261  0.38867016  0.68965284    -0.14300
C822        C  0.42449692  0.41009354  0.64431916     0.07900
C823        C  0.37832580  0.40784908  0.62982418    -0.14300
C824        C  0.34706280  0.38400706  0.66027411    -0.14300
C825        C  0.36176136  0.36132794  0.70500152     0.07900
C826        C  0.40811586  0.36361471  0.71929428    -0.14300
H827        H  0.47473470  0.39013484  0.70116876     0.11800
H828        H  0.36644177  0.42497074  0.59527070     0.11800
H829        H  0.31145279  0.38301053  0.64867546     0.11800
H830        H  0.42063182  0.34518144  0.75264814     0.11800
loop_ 
_geom_bond_atom_site_label_1 
_geom_bond_atom_site_label_2 
_geom_bond_distance 
_geom_bond_site_symmetry_2 
_ccdc_geom_bond_type 
O1            C9   1.264       .  A
O1          Co21   2.016       .  S
O2           C10   1.270       .  A
O2          Co22   1.998       .  S
O3           C11   1.302       .  A
O3          Co23   2.083       .  S
O4           C12   1.268       .  A
O4          Co24   1.983       .  S
O5           C11   1.270       .  A
O5          Co22   1.869       .  S
O6           C12   1.270       .  A
O6          Co21   2.001       .  S
O7           C10   1.264       .  A
O7         Co439   1.969       .  S
O8            C9   1.247       .  A
O8         Co438   1.941       .  S
C9          C387   1.471       .  S
C10         C357   1.480       .  S
C11         C377   1.463       .  S
C12         C370   1.466       .  S
O13          C26   1.267       .  A
O13         Co21   1.996       .  S
O14          C27   1.267       .  A
O14         Co22   2.025       .  S
O15          C28   1.299       .  A
O15        Co438   2.076       .  S
O16          C29   1.266       .  A
O16        Co439   1.979       .  S
O17          C29   1.266       .  A
O17         Co22   1.986       .  S
O18          C28   1.272       .  A
O18         Co21   1.891       .  S
O19          C26   1.262       .  A
O19         Co24   1.963       .  S
O20          C27   1.245       .  A
O20         Co23   1.937       .  S
Co21         O25   1.939       .  S
Co22        O440   1.940       .  S
Co23        O423   1.941       .  S
Co23        O430   2.076       .  S
Co23        O440   2.092       .  S
Co24        O422   1.969   1_554  S
Co24        O431   1.979   1_554  S
Co24         O25   2.003       .  S
O25        Co437   1.940   1_554  S
O25        Co438   2.092       .  S
C26         C347   1.475       .  S
C27         C400   1.481       .  S
C28         C407   1.461       .  S
C29         C340   1.460       .  S
C30          C67   1.459       .  S
C30         C300   1.463       .  S
C30          N48   1.345       .  A
N31          N48   1.323       .  A
N31          N53   1.322       .  A
N31         Co68   2.075   1_565  S
C32          C70   1.456       .  S
C32          N57   1.342       .  A
C32          H77   1.081       .  S
H33          C74   1.081       .  S
C34          C38   1.460       .  S
C34          N58   1.343       .  A
C34          H63   1.082       .  S
Co35         N53   2.093   1_545  S
Co35         N43   2.091   1_545  S
Co35         N75   2.088       .  S
Co35         N51   2.100       .  S
Co35        Cl79   2.446       .  S
N36          C74   1.341       .  A
N36          N43   1.319       .  A
N36         Co37   2.079   1_564  S
Co37         N57   2.086   1_556  S
Co37        N455   2.085   1_545  S
Co37        N459   2.072       .  S
Co37        Cl79   2.460   1_556  S
C38         C317   1.472       .  S
C38          N76   1.348       .  A
N39          N46   1.319       .  A
N39          N69   1.326       .  A
N39         Co72   2.093   1_565  S
N40          N58   1.322       .  A
N40          N76   1.325       .  A
N40        Co452   2.085   1_565  S
N41          C70   1.352       .  A
N41          N51   1.328       .  A
H42          C67   1.082       .  S
N43          N64   1.324       .  A
N44          N62   1.320       .  A
N44          N49   1.322       .  A
N44        Co452   2.072       .  S
C45          C73   1.461       .  S
C45         C290   1.471       .  S
C45          N49   1.348       .  A
N46          C61   1.340       .  A
N46        Co483   2.078   1_565  S
C47          C50   1.460       .  S
C47          N75   1.339       .  A
C47          H81   1.081       .  S
C50         C267   1.472       .  S
C50          N71   1.348       .  A
N51          N57   1.320       .  A
N52          C78   1.342       .  A
N52          N54   1.320       .  A
N52        Co483   2.082       .  S
N53          C67   1.343       .  A
N54          N82   1.327       .  A
N54         Co72   2.100       .  S
H55          C78   1.082       .  S
H56          C73   1.081       .  S
N58         Co72   2.096   1_565  S
N59          N71   1.325       .  A
N59          N75   1.321       .  A
N59         Co68   2.078       .  S
C60          C74   1.460       .  S
C60         C327   1.478       .  S
C60          N64   1.352       .  A
C61          C80   1.459       .  S
C61          H65   1.081       .  S
N62          C73   1.339       .  A
N62         Co72   2.085       .  S
C66          C78   1.458       .  S
C66         C257   1.476       .  S
C66          N82   1.352       .  A
Co68        N461   2.078   1_544  S
Co68        N467   2.082   1_554  S
Co68        Cl79   2.461       .  S
N69          C80   1.353       .  A
C70         C280   1.474       .  S
Co72       Cl494   2.445       .  S
Cl79       Co487   2.445   1_554  S
C80         C307   1.479       .  S
C83         C120   1.459       .  S
C83         C217   1.463       .  S
C83         N101   1.345       .  A
N84         N101   1.323       .  A
N84         N106   1.321       .  A
N84        Co121   2.076   1_655  S
C85         C123   1.457       .  S
C85         N110   1.340       .  A
C85         H130   1.081       .  S
H86         C127   1.082       .  S
C87          C91   1.462       .  S
C87         N111   1.340       .  A
C87         H116   1.081       .  S
Co88        N106   2.091   1_455  S
Co88         N96   2.094   1_455  S
Co88        N128   2.085       .  S
Co88        N104   2.086       .  S
Co88       Cl132   2.452       .  S
N89         C127   1.337       .  A
N89          N96   1.321       .  A
N89         Co90   2.067   1_654  S
Co90        N110   2.078   1_556  S
Co90        N508   2.071   1_455  S
Co90        N512   2.070       .  S
Co90       Cl132   2.450   1_556  S
C91         C237   1.473       .  S
C91         N129   1.348       .  A
N92          N99   1.320       .  A
N92         N122   1.325       .  A
N92        Co125   2.087   1_655  S
N93         N111   1.319       .  A
N93         N129   1.323       .  A
N93        Co505   2.071   1_655  S
N94         C123   1.350       .  A
N94         N104   1.324       .  A
H95         C120   1.082       .  S
N96         N117   1.325       .  A
N97         N115   1.321       .  A
N97         N102   1.322       .  A
N97        Co505   2.070       .  S
C98         C126   1.461       .  S
C98         C187   1.465       .  S
C98         N102   1.345       .  A
N99         C114   1.343       .  A
N99        Co536   2.092   1_655  S
C100        C103   1.461       .  S
C100        N128   1.340       .  A
C100        H134   1.081       .  S
C103        C210   1.479       .  S
C103        N124   1.351       .  A
N104        N110   1.320       .  A
N105        C131   1.341       .  A
N105        N107   1.320       .  A
N105       Co536   2.079       .  S
N106        C120   1.342       .  A
N107        N135   1.325       .  A
N107       Co125   2.087       .  S
H108        C131   1.082       .  S
H109        C126   1.082       .  S
N111       Co125   2.084   1_655  S
N112        N124   1.326       .  A
N112        N128   1.320       .  A
N112       Co121   2.089       .  S
C113        C127   1.450       .  S
C113        C247   1.461       .  S
C113        N117   1.351       .  A
C114        C133   1.463       .  S
C114        H118   1.081       .  S
N115        C126   1.342       .  A
N115       Co125   2.091       .  S
C119        C131   1.455       .  S
C119        C197   1.464       .  S
C119        N135   1.349       .  A
Co121       N514   2.092   1_454  S
Co121       N520   2.079   1_554  S
Co121      Cl132   2.451       .  S
N122        C133   1.351       .  A
C123        C177   1.471       .  S
Co125      Cl547   2.450       .  S
Cl132      Co540   2.450   1_554  S
C133        C227   1.481       .  S
C136        H137   1.111       .  S
C136        C142   1.535       .  S
C136        C141   1.535       .  S
C136        C140   1.543       .  S
C138        H139   1.111       .  S
C138        C144   1.534       .  S
C138        C143   1.532       .  S
C138        C145   1.532       .  S
C140        C143   1.378       .  D
C140        C410   1.479       .  S
C141        C144   1.376       .  D
C141        C207   1.480       .  S
C142        C145   1.375       .  D
C142        C277   1.493       .  S
C143        C397   1.483       .  S
C144        C200   1.489       .  S
C145        C287   1.477       .  S
C146        H147   1.111       .  S
C146        C152   1.536       .  S
C146        C151   1.536       .  S
C146        C150   1.530       .  S
C148        H149   1.110       .  S
C148        C154   1.532       .  S
C148        C153   1.542       .  S
C148        C155   1.536       .  S
C150        C153   1.380       .  D
C150        C390   1.475       .  S
C151        C154   1.372       .  D
C151        C270   1.479       .  S
C152        C155   1.380       .  D
C152        C220   1.492       .  S
C153        C380   1.485       .  S
C154        C260   1.487       .  S
C155        C230   1.485       .  S
C156        H157   1.111       .  S
C156        C162   1.528       .  S
C156        C161   1.535       .  S
C156        C160   1.540       .  S
C158        H159   1.110       .  S
C158        C164   1.531       .  S
C158        C163   1.539       .  S
C158        C165   1.531       .  S
C160        C163   1.381       .  D
C160        C350   1.481       .  S
C161        C164   1.372       .  D
C161        C330   1.485       .  S
C162        C165   1.373       .  D
C162        C180   1.480       .  S
C163        C337   1.480       .  S
C164        C320   1.483       .  S
C165        C190   1.474       .  S
C166        H167   1.107       .  S
C166        C172   1.530       .  S
C166        C171   1.543       .  S
C166        C170   1.543       .  S
C168        H169   1.111       .  S
C168        C174   1.531       .  S
C168        C173   1.537       .  S
C168        C175   1.533       .  S
C170        C173   1.376       .  D
C170        C367   1.479       .  S
C171        C174   1.383       .  D
C171        C250   1.506       .  S
C172        C175   1.370       .  D
C172        C297   1.479       .  S
C173        C360   1.484       .  S
C174        C240   1.478       .  S
C175        C310   1.486       .  S
C176        H182   1.083       .  S
C176        C177   1.400       .  A
C176        C181   1.393       .  A
C177        C178   1.406       .  A
C178        H183   1.083       .  S
C178        C179   1.401       .  A
C179        H184   1.083       .  S
C179        C180   1.400       .  A
C180        C181   1.404       .  A
C181        H185   1.080       .  S
C186        H192   1.083       .  S
C186        C187   1.399       .  A
C186        C191   1.394       .  A
C187        C188   1.405       .  A
C188        H193   1.083       .  S
C188        C189   1.398       .  A
C189        H194   1.083       .  S
C189        C190   1.399       .  A
C190        C191   1.403       .  A
C191        H195   1.082       .  S
C196        H202   1.083       .  S
C196        C197   1.401       .  A
C196        C201   1.399       .  A
C197        C198   1.398       .  A
C198        H203   1.083       .  S
C198        C199   1.397       .  A
C199        H204   1.082       .  S
C199        C200   1.407       .  A
C200        C201   1.406       .  A
C201        H205   1.083       .  S
C206        H212   1.083       .  S
C206        C207   1.400       .  A
C206        C211   1.401       .  A
C207        C208   1.403       .  A
C208        H213   1.083       .  S
C208        C209   1.396       .  A
C209        H214   1.082       .  S
C209        C210   1.405       .  A
C210        C211   1.407       .  A
C211        H215   1.083       .  S
C216        H222   1.083       .  S
C216        C217   1.397       .  A
C216        C221   1.395       .  A
C217        C218   1.401       .  A
C218        H223   1.083       .  S
C218        C219   1.399       .  A
C219        H224   1.082       .  S
C219        C220   1.407       .  A
C220        C221   1.408       .  A
C221        H225   1.080       .  S
C226        H232   1.082       .  S
C226        C227   1.406       .  A
C226        C231   1.401       .  A
C227        C228   1.405       .  A
C228        H233   1.083       .  S
C228        C229   1.398       .  A
C229        H234   1.083       .  S
C229        C230   1.405       .  A
C230        C231   1.401       .  A
C231        H235   1.083       .  S
C236        H242   1.082       .  S
C236        C237   1.402       .  A
C236        C241   1.394       .  A
C237        C238   1.407       .  A
C238        H243   1.083       .  S
C238        C239   1.398       .  A
C239        H244   1.083       .  S
C239        C240   1.400       .  A
C240        C241   1.404       .  A
C241        H245   1.083       .  S
C246        H252   1.084       .  S
C246        C247   1.398       .  A
C246        C251   1.398       .  A
C247        C248   1.396       .  A
C248        H253   1.083       .  S
C248        C249   1.395       .  A
C249        H254   1.078       .  S
C249        C250   1.410       .  A
C250        C251   1.412       .  A
C251        H255   1.080       .  S
C256        H262   1.083       .  S
C256        C257   1.406       .  A
C256        C261   1.404       .  A
C257        C258   1.401       .  A
C258        H263   1.083       .  S
C258        C259   1.398       .  A
C259        H264   1.081       .  S
C259        C260   1.405       .  A
C260        C261   1.402       .  A
C261        H265   1.083       .  S
C266        H272   1.083       .  S
C266        C267   1.399       .  A
C266        C271   1.391       .  A
C267        C268   1.407       .  A
C268        H273   1.083       .  S
C268        C269   1.403       .  A
C269        H274   1.083       .  S
C269        C270   1.401       .  A
C270        C271   1.402       .  A
C271        H275   1.079       .  S
C276        H282   1.083       .  S
C276        C277   1.407       .  A
C276        C281   1.402       .  A
C277        C278   1.406       .  A
C278        H283   1.083       .  S
C278        C279   1.402       .  A
C279        H284   1.083       .  S
C279        C280   1.402       .  A
C280        C281   1.403       .  A
C281        H285   1.083       .  S
C286        H292   1.083       .  S
C286        C287   1.399       .  A
C286        C291   1.398       .  A
C287        C288   1.404       .  A
C288        H293   1.083       .  S
C288        C289   1.392       .  A
C289        H294   1.082       .  S
C289        C290   1.401       .  A
C290        C291   1.406       .  A
C291        H295   1.083       .  S
C296        H302   1.083       .  S
C296        C297   1.404       .  A
C296        C301   1.396       .  A
C297        C298   1.403       .  A
C298        H303   1.083       .  S
C298        C299   1.398       .  A
C299        H304   1.083       .  S
C299        C300   1.403       .  A
C300        C301   1.399       .  A
C301        H305   1.083       .  S
C306        H312   1.082       .  S
C306        C307   1.408       .  A
C306        C311   1.402       .  A
C307        C308   1.402       .  A
C308        H313   1.083       .  S
C308        C309   1.395       .  A
C309        H314   1.082       .  S
C309        C310   1.406       .  A
C310        C311   1.401       .  A
C311        H315   1.083       .  S
C316        H322   1.083       .  S
C316        C317   1.404       .  A
C316        C321   1.401       .  A
C317        C318   1.402       .  A
C318        H323   1.083       .  S
C318        C319   1.400       .  A
C319        H324   1.083       .  S
C319        C320   1.404       .  A
C320        C321   1.403       .  A
C321        H325   1.083       .  S
C326        H332   1.083       .  S
C326        C327   1.402       .  A
C326        C331   1.395       .  A
C327        C328   1.407       .  A
C328        H333   1.082       .  S
C328        C329   1.402       .  A
C329        H334   1.083       .  S
C329        C330   1.401       .  A
C330        C331   1.405       .  A
C331        H335   1.081       .  S
C336        H342   1.081       .  S
C336        C337   1.406       .  A
C336        C341   1.390       .  A
C337        C338   1.404       .  A
C338        H343   1.082       .  S
C338        C339   1.395       .  A
C339        H344   1.083       .  S
C339        C340   1.401       .  A
C340        C341   1.398       .  A
C341        H345   1.084       .  S
C346        H352   1.083       .  S
C346        C347   1.405       .  A
C346        C351   1.406       .  A
C347        C348   1.406       .  A
C348        H353   1.084       .  S
C348        C349   1.384       .  A
C349        H354   1.083       .  S
C349        C350   1.398       .  A
C350        C351   1.409       .  A
C351        H355   1.083       .  S
C356        H362   1.083       .  S
C356        C357   1.406       .  A
C356        C361   1.407       .  A
C357        C358   1.407       .  A
C358        H363   1.083       .  S
C358        C359   1.387       .  A
C359        H364   1.083       .  S
C359        C360   1.398       .  A
C360        C361   1.409       .  A
C361        H365   1.082       .  S
C366        H372   1.082       .  S
C366        C367   1.405       .  A
C366        C371   1.400       .  A
C367        C368   1.401       .  A
C368        H373   1.081       .  S
C368        C369   1.393       .  A
C369        H374   1.083       .  S
C369        C370   1.400       .  A
C370        C371   1.403       .  A
C371        H375   1.084       .  S
C376        H382   1.083       .  S
C376        C377   1.397       .  A
C376        C381   1.392       .  A
C377        C378   1.403       .  A
C378        H383   1.084       .  S
C378        C379   1.391       .  A
C379        H384   1.074       .  S
C379        C380   1.402       .  A
C380        C381   1.407       .  A
C381        H385   1.079       .  S
C386        H392   1.084       .  S
C386        C387   1.408       .  A
C386        C391   1.392       .  A
C387        C388   1.401       .  A
C388        H393   1.083       .  S
C388        C389   1.401       .  A
C389        H394   1.083       .  S
C389        C390   1.407       .  A
C390        C391   1.395       .  A
C391        H395   1.080       .  S
C396        H402   1.083       .  S
C396        C397   1.405       .  A
C396        C401   1.402       .  A
C397        C398   1.401       .  A
C398        H403   1.084       .  S
C398        C399   1.394       .  A
C399        H404   1.083       .  S
C399        C400   1.410       .  A
C400        C401   1.404       .  A
C401        H405   1.083       .  S
C406        H412   1.083       .  S
C406        C407   1.399       .  A
C406        C411   1.395       .  A
C407        C408   1.402       .  A
C408        H413   1.084       .  S
C408        C409   1.394       .  A
C409        H414   1.083       .  S
C409        C410   1.403       .  A
C410        C411   1.406       .  A
C411        H415   1.082       .  S
O416        C424   1.264       .  A
O416       Co436   2.016       .  S
O417        C425   1.270       .  A
O417       Co437   1.998       .  S
O418        C426   1.302       .  A
O418       Co438   2.083   1_556  S
O419        C427   1.268       .  A
O419       Co439   1.983       .  S
O420        C426   1.270       .  A
O420       Co437   1.869       .  S
O421        C427   1.270       .  A
O421       Co436   2.001       .  S
O422        C425   1.264       .  A
O423        C424   1.247       .  A
C424        C802   1.471       .  S
C425        C772   1.480       .  S
C426        C792   1.463       .  S
C427        C785   1.466       .  S
O428        C441   1.267       .  A
O428       Co436   1.996       .  S
O429        C442   1.267       .  A
O429       Co437   2.025       .  S
O430        C443   1.299       .  A
O431        C444   1.266       .  A
O432        C444   1.266       .  A
O432       Co437   1.986       .  S
O433        C443   1.272       .  A
O433       Co436   1.891       .  S
O434        C441   1.262       .  A
O434       Co439   1.963       .  S
O435        C442   1.245       .  A
O435       Co438   1.937   1_556  S
Co436       O440   1.939       .  S
Co439       O440   2.003       .  S
C441        C762   1.475       .  S
C442        C815   1.481       .  S
C443        C822   1.461       .  S
C444        C755   1.460       .  S
C445        C482   1.459       .  S
C445        C715   1.463       .  S
C445        N463   1.345       .  A
N446        N463   1.323       .  A
N446        N468   1.322       .  A
N446       Co483   2.075   1_565  S
C447        C485   1.456       .  S
C447        N472   1.342       .  A
C447        H492   1.081       .  S
H448        C489   1.081       .  S
C449        C453   1.460       .  S
C449        N473   1.343       .  A
C449        H478   1.082       .  S
Co450       N468   2.093   1_545  S
Co450       N458   2.091   1_545  S
Co450       N490   2.088       .  S
Co450       N466   2.100       .  S
Co450      Cl494   2.446       .  S
N451        C489   1.341       .  A
N451        N458   1.319       .  A
N451       Co452   2.079   1_565  S
Co452       N472   2.086       .  S
Co452      Cl494   2.460       .  S
C453        C732   1.472       .  S
C453        N491   1.348       .  A
N454        N461   1.319       .  A
N454        N484   1.326       .  A
N454       Co487   2.093   1_565  S
N455        N473   1.322       .  A
N455        N491   1.325       .  A
N456        C485   1.352       .  A
N456        N466   1.328       .  A
H457        C482   1.082       .  S
N458        N479   1.324       .  A
N459        N477   1.320       .  A
N459        N464   1.322       .  A
C460        C488   1.461       .  S
C460        C705   1.471       .  S
C460        N464   1.348       .  A
N461        C476   1.340       .  A
C462        C465   1.460       .  S
C462        N490   1.339       .  A
C462        H496   1.081       .  S
C465        C682   1.472       .  S
C465        N486   1.348       .  A
N466        N472   1.320       .  A
N467        C493   1.342       .  A
N467        N469   1.320       .  A
N468        C482   1.343       .  A
N469        N497   1.327       .  A
N469       Co487   2.100       .  S
H470        C493   1.082       .  S
H471        C488   1.081       .  S
N473       Co487   2.096   1_565  S
N474        N486   1.325       .  A
N474        N490   1.321       .  A
N474       Co483   2.078       .  S
C475        C489   1.460       .  S
C475        C742   1.478       .  S
C475        N479   1.352       .  A
C476        C495   1.459       .  S
C476        H480   1.081       .  S
N477        C488   1.339       .  A
N477       Co487   2.085       .  S
C481        C493   1.458       .  S
C481        C672   1.476       .  S
C481        N497   1.352       .  A
Co483      Cl494   2.461       .  S
N484        C495   1.353       .  A
C485        C695   1.474       .  S
C495        C722   1.479       .  S
C498        C535   1.459       .  S
C498        C632   1.463       .  S
C498        N516   1.345       .  A
N499        N516   1.323       .  A
N499        N521   1.321       .  A
N499       Co536   2.076   1_655  S
C500        C538   1.457       .  S
C500        N525   1.340       .  A
C500        H545   1.081       .  S
H501        C542   1.082       .  S
C502        C506   1.462       .  S
C502        N526   1.340       .  A
C502        H531   1.081       .  S
Co503       N521   2.091   1_455  S
Co503       N511   2.094   1_455  S
Co503       N543   2.085       .  S
Co503       N519   2.086       .  S
Co503      Cl547   2.452       .  S
N504        C542   1.337       .  A
N504        N511   1.321       .  A
N504       Co505   2.067   1_655  S
Co505       N525   2.078       .  S
Co505      Cl547   2.450       .  S
C506        C652   1.473       .  S
C506        N544   1.348       .  A
N507        N514   1.320       .  A
N507        N537   1.325       .  A
N507       Co540   2.087   1_655  S
N508        N526   1.319       .  A
N508        N544   1.323       .  A
N509        C538   1.350       .  A
N509        N519   1.324       .  A
H510        C535   1.082       .  S
N511        N532   1.325       .  A
N512        N530   1.321       .  A
N512        N517   1.322       .  A
C513        C541   1.461       .  S
C513        C602   1.465       .  S
C513        N517   1.345       .  A
N514        C529   1.343       .  A
C515        C518   1.461       .  S
C515        N543   1.340       .  A
C515        H549   1.081       .  S
C518        C625   1.479       .  S
C518        N539   1.351       .  A
N519        N525   1.320       .  A
N520        C546   1.341       .  A
N520        N522   1.320       .  A
N521        C535   1.342       .  A
N522        N550   1.325       .  A
N522       Co540   2.087       .  S
H523        C546   1.082       .  S
H524        C541   1.082       .  S
N526       Co540   2.084   1_655  S
N527        N539   1.326       .  A
N527        N543   1.320       .  A
N527       Co536   2.089       .  S
C528        C542   1.450       .  S
C528        C662   1.461       .  S
C528        N532   1.351       .  A
C529        C548   1.463       .  S
C529        H533   1.081       .  S
N530        C541   1.342       .  A
N530       Co540   2.091       .  S
C534        C546   1.455       .  S
C534        C612   1.464       .  S
C534        N550   1.349       .  A
Co536      Cl547   2.451       .  S
N537        C548   1.351       .  A
C538        C592   1.471       .  S
C548        C642   1.481       .  S
C551        H552   1.111       .  S
C551        C557   1.535       .  S
C551        C556   1.535       .  S
C551        C555   1.543       .  S
C553        H554   1.111       .  S
C553        C559   1.534       .  S
C553        C558   1.532       .  S
C553        C560   1.532       .  S
C555        C558   1.378       .  D
C555        C825   1.479       .  S
C556        C559   1.376       .  D
C556        C622   1.480       .  S
C557        C560   1.375       .  D
C557        C692   1.493       .  S
C558        C812   1.483       .  S
C559        C615   1.489       .  S
C560        C702   1.477       .  S
C561        H562   1.111       .  S
C561        C567   1.536       .  S
C561        C566   1.536       .  S
C561        C565   1.530       .  S
C563        H564   1.110       .  S
C563        C569   1.532       .  S
C563        C568   1.542       .  S
C563        C570   1.536       .  S
C565        C568   1.380       .  D
C565        C805   1.475       .  S
C566        C569   1.372       .  D
C566        C685   1.479       .  S
C567        C570   1.380       .  D
C567        C635   1.492       .  S
C568        C795   1.485       .  S
C569        C675   1.487       .  S
C570        C645   1.485       .  S
C571        H572   1.111       .  S
C571        C577   1.528       .  S
C571        C576   1.535       .  S
C571        C575   1.540       .  S
C573        H574   1.110       .  S
C573        C579   1.531       .  S
C573        C578   1.539       .  S
C573        C580   1.531       .  S
C575        C578   1.381       .  D
C575        C765   1.481       .  S
C576        C579   1.372       .  D
C576        C745   1.485       .  S
C577        C580   1.373       .  D
C577        C595   1.480       .  S
C578        C752   1.480       .  S
C579        C735   1.483       .  S
C580        C605   1.474       .  S
C581        H582   1.107       .  S
C581        C587   1.530       .  S
C581        C586   1.543       .  S
C581        C585   1.543       .  S
C583        H584   1.111       .  S
C583        C589   1.531       .  S
C583        C588   1.537       .  S
C583        C590   1.533       .  S
C585        C588   1.376       .  D
C585        C782   1.479       .  S
C586        C589   1.383       .  D
C586        C665   1.506       .  S
C587        C590   1.370       .  D
C587        C712   1.479       .  S
C588        C775   1.484       .  S
C589        C655   1.478       .  S
C590        C725   1.486       .  S
C591        H597   1.083       .  S
C591        C592   1.400       .  A
C591        C596   1.393       .  A
C592        C593   1.406       .  A
C593        H598   1.083       .  S
C593        C594   1.401       .  A
C594        H599   1.083       .  S
C594        C595   1.400       .  A
C595        C596   1.404       .  A
C596        H600   1.080       .  S
C601        H607   1.083       .  S
C601        C602   1.399       .  A
C601        C606   1.394       .  A
C602        C603   1.405       .  A
C603        H608   1.083       .  S
C603        C604   1.398       .  A
C604        H609   1.083       .  S
C604        C605   1.399       .  A
C605        C606   1.403       .  A
C606        H610   1.082       .  S
C611        H617   1.083       .  S
C611        C612   1.401       .  A
C611        C616   1.399       .  A
C612        C613   1.398       .  A
C613        H618   1.083       .  S
C613        C614   1.397       .  A
C614        H619   1.082       .  S
C614        C615   1.407       .  A
C615        C616   1.406       .  A
C616        H620   1.083       .  S
C621        H627   1.083       .  S
C621        C622   1.400       .  A
C621        C626   1.401       .  A
C622        C623   1.403       .  A
C623        H628   1.083       .  S
C623        C624   1.396       .  A
C624        H629   1.082       .  S
C624        C625   1.405       .  A
C625        C626   1.407       .  A
C626        H630   1.083       .  S
C631        H637   1.083       .  S
C631        C632   1.397       .  A
C631        C636   1.395       .  A
C632        C633   1.401       .  A
C633        H638   1.083       .  S
C633        C634   1.399       .  A
C634        H639   1.082       .  S
C634        C635   1.407       .  A
C635        C636   1.408       .  A
C636        H640   1.080       .  S
C641        H647   1.082       .  S
C641        C642   1.406       .  A
C641        C646   1.401       .  A
C642        C643   1.405       .  A
C643        H648   1.083       .  S
C643        C644   1.398       .  A
C644        H649   1.083       .  S
C644        C645   1.405       .  A
C645        C646   1.401       .  A
C646        H650   1.083       .  S
C651        H657   1.082       .  S
C651        C652   1.402       .  A
C651        C656   1.394       .  A
C652        C653   1.407       .  A
C653        H658   1.083       .  S
C653        C654   1.398       .  A
C654        H659   1.083       .  S
C654        C655   1.400       .  A
C655        C656   1.404       .  A
C656        H660   1.083       .  S
C661        H667   1.084       .  S
C661        C662   1.398       .  A
C661        C666   1.398       .  A
C662        C663   1.396       .  A
C663        H668   1.083       .  S
C663        C664   1.395       .  A
C664        H669   1.078       .  S
C664        C665   1.410       .  A
C665        C666   1.412       .  A
C666        H670   1.080       .  S
C671        H677   1.083       .  S
C671        C672   1.406       .  A
C671        C676   1.404       .  A
C672        C673   1.401       .  A
C673        H678   1.083       .  S
C673        C674   1.398       .  A
C674        H679   1.081       .  S
C674        C675   1.405       .  A
C675        C676   1.402       .  A
C676        H680   1.083       .  S
C681        H687   1.083       .  S
C681        C682   1.399       .  A
C681        C686   1.391       .  A
C682        C683   1.407       .  A
C683        H688   1.083       .  S
C683        C684   1.403       .  A
C684        H689   1.083       .  S
C684        C685   1.401       .  A
C685        C686   1.402       .  A
C686        H690   1.079       .  S
C691        H697   1.083       .  S
C691        C692   1.407       .  A
C691        C696   1.402       .  A
C692        C693   1.406       .  A
C693        H698   1.083       .  S
C693        C694   1.402       .  A
C694        H699   1.083       .  S
C694        C695   1.402       .  A
C695        C696   1.403       .  A
C696        H700   1.083       .  S
C701        H707   1.083       .  S
C701        C702   1.399       .  A
C701        C706   1.398       .  A
C702        C703   1.404       .  A
C703        H708   1.083       .  S
C703        C704   1.392       .  A
C704        H709   1.082       .  S
C704        C705   1.401       .  A
C705        C706   1.406       .  A
C706        H710   1.083       .  S
C711        H717   1.083       .  S
C711        C712   1.404       .  A
C711        C716   1.396       .  A
C712        C713   1.403       .  A
C713        H718   1.083       .  S
C713        C714   1.398       .  A
C714        H719   1.083       .  S
C714        C715   1.403       .  A
C715        C716   1.399       .  A
C716        H720   1.083       .  S
C721        H727   1.082       .  S
C721        C722   1.408       .  A
C721        C726   1.402       .  A
C722        C723   1.402       .  A
C723        H728   1.083       .  S
C723        C724   1.395       .  A
C724        H729   1.082       .  S
C724        C725   1.406       .  A
C725        C726   1.401       .  A
C726        H730   1.083       .  S
C731        H737   1.083       .  S
C731        C732   1.404       .  A
C731        C736   1.401       .  A
C732        C733   1.402       .  A
C733        H738   1.083       .  S
C733        C734   1.400       .  A
C734        H739   1.083       .  S
C734        C735   1.404       .  A
C735        C736   1.403       .  A
C736        H740   1.083       .  S
C741        H747   1.083       .  S
C741        C742   1.402       .  A
C741        C746   1.395       .  A
C742        C743   1.407       .  A
C743        H748   1.082       .  S
C743        C744   1.402       .  A
C744        H749   1.083       .  S
C744        C745   1.401       .  A
C745        C746   1.405       .  A
C746        H750   1.081       .  S
C751        H757   1.081       .  S
C751        C752   1.406       .  A
C751        C756   1.390       .  A
C752        C753   1.404       .  A
C753        H758   1.082       .  S
C753        C754   1.395       .  A
C754        H759   1.083       .  S
C754        C755   1.401       .  A
C755        C756   1.398       .  A
C756        H760   1.084       .  S
C761        H767   1.083       .  S
C761        C762   1.405       .  A
C761        C766   1.406       .  A
C762        C763   1.406       .  A
C763        H768   1.084       .  S
C763        C764   1.384       .  A
C764        H769   1.083       .  S
C764        C765   1.398       .  A
C765        C766   1.409       .  A
C766        H770   1.083       .  S
C771        H777   1.083       .  S
C771        C772   1.406       .  A
C771        C776   1.407       .  A
C772        C773   1.407       .  A
C773        H778   1.083       .  S
C773        C774   1.387       .  A
C774        H779   1.083       .  S
C774        C775   1.398       .  A
C775        C776   1.409       .  A
C776        H780   1.082       .  S
C781        H787   1.082       .  S
C781        C782   1.405       .  A
C781        C786   1.400       .  A
C782        C783   1.401       .  A
C783        H788   1.081       .  S
C783        C784   1.393       .  A
C784        H789   1.083       .  S
C784        C785   1.400       .  A
C785        C786   1.403       .  A
C786        H790   1.084       .  S
C791        H797   1.083       .  S
C791        C792   1.397       .  A
C791        C796   1.392       .  A
C792        C793   1.403       .  A
C793        H798   1.084       .  S
C793        C794   1.391       .  A
C794        H799   1.074       .  S
C794        C795   1.402       .  A
C795        C796   1.407       .  A
C796        H800   1.079       .  S
C801        H807   1.084       .  S
C801        C802   1.408       .  A
C801        C806   1.392       .  A
C802        C803   1.401       .  A
C803        H808   1.083       .  S
C803        C804   1.401       .  A
C804        H809   1.083       .  S
C804        C805   1.407       .  A
C805        C806   1.395       .  A
C806        H810   1.080       .  S
C811        H817   1.083       .  S
C811        C812   1.405       .  A
C811        C816   1.402       .  A
C812        C813   1.401       .  A
C813        H818   1.084       .  S
C813        C814   1.394       .  A
C814        H819   1.083       .  S
C814        C815   1.410       .  A
C815        C816   1.404       .  A
C816        H820   1.083       .  S
C821        H827   1.083       .  S
C821        C822   1.399       .  A
C821        C826   1.395       .  A
C822        C823   1.402       .  A
C823        H828   1.084       .  S
C823        C824   1.394       .  A
C824        H829   1.083       .  S
C824        C825   1.403       .  A
C825        C826   1.406       .  A
C826        H830   1.082       .  S
