geometry optimzed in LAMMPS
_audit_creation_date              2020-11-30 
_audit_creation_method            'lammps2cif' 
_symmetry_space_group_name_H-M    'P1' 
_symmetry_Int_Tables_number       1 
_symmetry_cell_setting            triclinic 
loop_ 
_symmetry_equiv_pos_as_xyz 
  x,y,z 
_cell_length_a                    28.5450358 
_cell_length_b                    28.687278173428943 
_cell_length_c                    29.852992540412906 
_cell_angle_alpha                 89.8186576759814 
_cell_angle_beta                  90.28689169660538 
_cell_angle_gamma                 90.02946516919381 
loop_ 
_atom_site_label 
_atom_site_type_symbol 
_atom_site_fract_x 
_atom_site_fract_y 
_atom_site_fract_z 
_atom_site_charge 
N1          N  0.60341745  0.44777779  0.04523169    -0.06100
N2          N  0.63439177  0.44660908  0.07837974    -0.58200
N3          N  0.56052611  0.41179364  0.44900915    -0.05800
N4          N  0.56694767  0.38111942  0.41718502    -0.60300
N5          N  0.59029314  0.44628917  0.44479453    -0.05400
N6          N  0.61782157  0.44005214  0.41019499    -0.58200
N7          N  0.57297053  0.41364211  0.04934570    -0.05100
N8          N  0.58220824  0.38880118  0.08533884    -0.60700
C9          C  0.62042845  0.40960421  0.10320422     0.96100
C10         C  0.60258283  0.39935690  0.39319364     0.95900
N11         N  0.41853289  0.43197735  0.46168529    -0.06300
N12         N  0.38728072  0.42413952  0.43028321    -0.58800
N13         N  0.46425532  0.40210691  0.05764839    -0.04400
N14         N  0.45998566  0.37103464  0.09021001    -0.60000
N15         N  0.43032205  0.43299725  0.05941980    -0.06300
N16         N  0.40251855  0.42397791  0.09331153    -0.59100
N17         N  0.45329300  0.40217191  0.45876978    -0.04000
N18         N  0.44635546  0.37311322  0.42510733    -0.60100
Mn19       Mn  0.51454757  0.40383831  0.00241584     1.18400
C20         C  0.40501410  0.38760099  0.40768566     0.98200
C21         C  0.42147026  0.38554098  0.11238665     0.98800
N22         N  0.58007998  0.55213528  0.43889435    -0.06300
N23         N  0.60494848  0.56099714  0.40273654    -0.62600
N24         N  0.55853240  0.58396612  0.03897993    -0.05100
N25         N  0.56438454  0.61470067  0.07092208    -0.63300
N26         N  0.59385908  0.55482715  0.03793410    -0.05800
N27         N  0.62493420  0.56489750  0.06899062    -0.62900
N28         N  0.54427865  0.58062426  0.44120033    -0.04700
N29         N  0.54370258  0.60947003  0.40708117    -0.63600
Mn30       Mn  0.59313339  0.50162389  0.49247638     1.10700
C31         C  0.58132242  0.59656808  0.38313920     0.99400
C32         C  0.60589193  0.60228100  0.08902121     0.99500
N33         N  0.42202048  0.54277522  0.05428474    -0.05800
N34         N  0.39381081  0.55200884  0.08778580    -0.61200
N35         N  0.43800529  0.57310840  0.45248995    -0.05200
N36         N  0.42737889  0.59964631  0.41809661    -0.57900
N37         N  0.40737556  0.53935915  0.45712404    -0.06500
N38         N  0.37457602  0.54238570  0.42580006    -0.60800
N39         N  0.45180133  0.57715001  0.04865515    -0.05500
N40         N  0.44473460  0.61056185  0.07786378    -0.58000
Mn41       Mn  0.41927645  0.48502625  0.00648810     1.20200
Mn42       Mn  0.49716780  0.58137247  0.49711805     1.10100
Cl43       Cl  0.50719492  0.49143834  0.99853323    -0.85900
C44         C  0.40868252  0.59427888  0.10214515     0.96400
C45         C  0.38800624  0.58013622  0.40167547     0.96200
N46         N  0.41376227  0.94354797  0.05867336    -0.06100
N47         N  0.38047306  0.91472528  0.07286717    -0.58200
N48         N  0.44303932  0.05138590  0.08787663    -0.05800
N49         N  0.43109902  0.07736075  0.12251853    -0.60300
N50         N  0.40887244  0.05023255  0.05801259    -0.05400
N51         N  0.37302928  0.07550601  0.07239493    -0.58200
N52         N  0.44783350  0.94523289  0.08869700    -0.05100
N53         N  0.43828383  0.91753480  0.12318465    -0.60700
C54         C  0.39625801  0.89808753  0.11302461     0.96100
C55         C  0.38743029  0.09265640  0.11265936     0.95900
N56         N  0.58660546  0.05855025  0.05069530    -0.06300
N57         N  0.62028050  0.08843471  0.06014801    -0.58800
N58         N  0.56029501  0.95150871  0.08475427    -0.04400
N59         N  0.57395244  0.92486765  0.11829386    -0.60000
N60         N  0.59305422  0.95317014  0.05396332    -0.06300
N61         N  0.62973122  0.92776233  0.06629439    -0.59100
N62         N  0.55531343  0.05736291  0.08299103    -0.07200
N63         N  0.56747984  0.08655742  0.11516748    -0.60100
Mn64       Mn  0.50173519  0.00134980  0.08620232     1.18400
C65         C  0.60744428  0.10626896  0.09989045     0.98200
C66         C  0.61714333  0.90998658  0.10651719     0.98800
N67         N  0.40649583  0.04997333  0.44636433    -0.06300
N68         N  0.37048023  0.07634720  0.43388249    -0.62600
N69         N  0.44209264  0.94597179  0.41576535    -0.05100
N70         N  0.42879824  0.92044693  0.38106626    -0.63300
N71         N  0.40997744  0.94439227  0.44756101    -0.05800
N72         N  0.37478766  0.91725996  0.43485497    -0.62900
N73         N  0.43957428  0.05147368  0.41544977    -0.04700
N74         N  0.42657986  0.07939243  0.38213193    -0.63600
Mn75       Mn  0.41001968  0.99716072  0.00267962     1.10700
C76         C  0.38360983  0.09505495  0.39405702     0.99400
C77         C  0.38697811  0.90262209  0.39341845     0.99500
N78         N  0.58919659  0.94850817  0.44855271    -0.05800
N79         N  0.62683591  0.92416311  0.43825910    -0.61200
N80         N  0.55484303  0.05286791  0.41311193    -0.05200
N81         N  0.56911373  0.07566783  0.37713376    -0.57900
N82         N  0.58806857  0.05337769  0.44390770    -0.06500
N83         N  0.62525066  0.07639936  0.42921164    -0.60800
N84         N  0.55822714  0.94774619  0.41556945    -0.05500
N85         N  0.57545304  0.92330292  0.38171835    -0.58000
Mn86       Mn  0.58963077  0.00473628  0.99939274     1.20200
Mn87       Mn  0.49841226  0.99949994  0.41473776     1.10100
Cl88       Cl  0.49995708  0.00103714  0.00053144    -0.85900
C89         C  0.61794953  0.90816205  0.39674629     0.96400
C90         C  0.61298952  0.09046603  0.38751198     0.96200
N91         N  0.94256032  0.59036720  0.05692291    -0.06100
N92         N  0.91632887  0.62578368  0.07093807    -0.58200
N93         N  0.05027486  0.55543005  0.08507573    -0.05800
N94         N  0.07959637  0.56689459  0.11777928    -0.60300
N95         N  0.04942090  0.58860774  0.05440207    -0.05400
N96         N  0.07822195  0.62282665  0.06552965    -0.58200
N97         N  0.94291432  0.55673302  0.08731611    -0.05100
N98         N  0.91655020  0.56898587  0.12192871    -0.60700
C99         C  0.89973423  0.61214728  0.11158068     0.96100
C100        C  0.09730233  0.60861765  0.10473682     0.95900
N101        N  0.04930624  0.40964310  0.04977975    -0.06300
N102        N  0.07795176  0.37464509  0.05957076    -0.58800
N103        N  0.94375512  0.44145068  0.08336107    -0.04400
N104        N  0.91869676  0.42613433  0.11760834    -0.60000
N105        N  0.94258105  0.41064455  0.05057471    -0.06300
N106        N  0.91634227  0.37450429  0.06196538    -0.59100
N107        N  0.05073475  0.44141841  0.08171121    -0.04000
N108        N  0.08077148  0.42837830  0.11343955    -0.60100
Mn109      Mn  0.99681726  0.49867729  0.08482090     1.18400
C110        C  0.09798993  0.38697921  0.09899163     0.98200
C111        C  0.90116070  0.38468731  0.10364332     0.98800
N112        N  0.04843375  0.59223405  0.44643828    -0.06300
N113        N  0.07623860  0.62707743  0.43409929    -0.62600
N114        N  0.94256896  0.56133172  0.41467195    -0.05100
N115        N  0.91641453  0.57542803  0.38053488    -0.63300
N116        N  0.94237148  0.59291088  0.44678832    -0.05800
N117        N  0.91589930  0.62879423  0.43492155    -0.62900
N118        N  0.04832016  0.55935128  0.41561562    -0.04700
N119        N  0.07604031  0.57122550  0.38233391    -0.63600
Mn120      Mn  0.99548854  0.59066860  0.00114535     1.10700
C121        C  0.09362352  0.61330295  0.39405427     0.99400
C122        C  0.90003600  0.61738267  0.39362887     0.99500
N123        N  0.94035580  0.41479743  0.44229510    -0.05800
N124        N  0.91285231  0.38007585  0.42955048    -0.61200
N125        N  0.04680756  0.44618736  0.41044059    -0.05200
N126        N  0.07140005  0.43295541  0.37517295    -0.57900
N127        N  0.04689634  0.41284697  0.44087474    -0.06500
N128        N  0.07141145  0.37660771  0.42665858    -0.60800
N129        N  0.93991415  0.44810643  0.41174203    -0.05500
N130        N  0.91193687  0.43638097  0.37794156    -0.58000
Mn131      Mn  0.99487309  0.41133919  0.99600297     1.20200
Mn132      Mn  0.99443637  0.50383098  0.41306711     1.10100
Cl133      Cl  0.99534735  0.50087991  0.99879323    -0.85900
C134        C  0.89469775  0.39392912  0.38957033     0.96400
C135        C  0.08685938  0.38945620  0.38560479     0.96200
C136        C  0.26281660  0.26011994  0.20740713     0.45500
H137        H  0.26863834  0.26080780  0.17064924    -0.03500
C138        C  0.25054154  0.25966131  0.29303047     0.45500
H139        H  0.24574380  0.25816340  0.32971356    -0.03500
C140        C  0.29591194  0.29361821  0.23248230    -0.17200
C141        C  0.21338203  0.27649582  0.22090917    -0.17000
C142        C  0.27238398  0.21172620  0.22852074    -0.17400
C143        C  0.28910181  0.29372127  0.27807493    -0.17300
C144        C  0.20655135  0.27735051  0.26695864    -0.16900
C145        C  0.26704469  0.21146105  0.27472584    -0.17200
C146        C  0.74234196  0.25969354  0.20604124     0.45500
H147        H  0.73818693  0.26601184  0.16989682    -0.03500
C148        C  0.74517363  0.24755200  0.29136694     0.45500
H149        H  0.74732290  0.24277119  0.32805987    -0.03500
C150        C  0.71039154  0.29318862  0.23160122    -0.17200
C151        C  0.72570851  0.21081327  0.22017567    -0.17000
C152        C  0.79235108  0.26801993  0.22495096    -0.17400
C153        C  0.71109102  0.28568382  0.27702539    -0.17300
C154        C  0.72609231  0.20425052  0.26599942    -0.16900
C155        C  0.79272950  0.26470117  0.27160843    -0.17200
C156        C  0.26490276  0.73416281  0.20710837     0.45500
H157        H  0.26749906  0.73734509  0.17012968    -0.03500
C158        C  0.26058586  0.72723277  0.29296267     0.45500
H159        H  0.25700713  0.72321517  0.32927526    -0.03500
C160        C  0.29675029  0.69579226  0.22649316    -0.17200
C161        C  0.28125008  0.77903954  0.23119793    -0.17000
C162        C  0.21534269  0.71983040  0.22349320    -0.17400
C163        C  0.29461739  0.69250613  0.27207554    -0.17300
C164        C  0.27999928  0.77518366  0.27785082    -0.16900
C165        C  0.21344300  0.71619212  0.26971896    -0.17200
C166        C  0.73261996  0.74631402  0.20903853     0.45500
H167        H  0.73625519  0.74840421  0.17204565    -0.03500
C168        C  0.72436585  0.74280577  0.29474614     0.45500
H169        H  0.71968735  0.73932990  0.33094264    -0.03500
C170        C  0.68945377  0.71804871  0.22381268    -0.17200
C171        C  0.77479829  0.72109252  0.23198381    -0.17000
C172        C  0.72456329  0.79490405  0.23072531    -0.17400
C173        C  0.68437753  0.71765442  0.26947400    -0.17300
C174        C  0.77013202  0.71950723  0.27823035    -0.16900
C175        C  0.72358172  0.79390550  0.27737307    -0.17200
C176        C  0.10565714  0.66785345  0.16547119    -0.12200
C177        C  0.12672608  0.63892636  0.13346019     0.04800
C178        C  0.17557359  0.64008908  0.12883197    -0.07500
C179        C  0.20265967  0.66762278  0.15755458    -0.08300
C180        C  0.18246589  0.69552899  0.19123900    -0.02800
C181        C  0.13279372  0.69648485  0.19396376     0.04000
N182        N  0.10904993  0.72668165  0.22432830     0.66500
H183        H  0.06781543  0.66830854  0.16830209     0.15400
H184        H  0.24020947  0.66520196  0.15408257     0.15100
N185        N  0.19859106  0.61273494  0.09565628     0.74200
O186        O  0.10110082  0.76815040  0.21234418    -0.39300
O187        O  0.08426304  0.70900871  0.25489868    -0.39200
O188        O  0.21376086  0.63254169  0.06082157    -0.39900
O189        O  0.21417747  0.57302455  0.10620674    -0.40000
C190        C  0.13630017  0.62084104  0.32270830    -0.12200
C191        C  0.12254180  0.64196461  0.36264754     0.04800
C192        C  0.13647615  0.68859947  0.37011796    -0.07500
C193        C  0.16240637  0.71271686  0.33726903    -0.08300
C194        C  0.17730924  0.69095359  0.29752900    -0.02800
C195        C  0.16458694  0.64348171  0.29139456     0.04000
N196        N  0.18549088  0.61430698  0.25863635     0.66500
H197        H  0.12763795  0.58461586  0.31657614     0.15400
H198        H  0.17324547  0.74823718  0.34404835     0.15100
N199        N  0.12712799  0.71138816  0.41153772     0.74200
O200        O  0.21590820  0.58610188  0.27297424    -0.39300
O201        O  0.16018552  0.60113425  0.22633369    -0.39200
O202        O  0.15840876  0.71147676  0.44156987    -0.39900
O203        O  0.09464944  0.74112388  0.41320475    -0.40000
C204        C  0.14819938  0.28414572  0.33029712    -0.12200
C205        C  0.16903605  0.30476541  0.29222918     0.04800
C206        C  0.15865439  0.35280135  0.28453956    -0.07500
C207        C  0.13081187  0.37817773  0.31452089    -0.08300
C208        C  0.11282770  0.35843497  0.35352695    -0.02800
C209        C  0.12037758  0.31018473  0.36049364     0.04000
N210        N  0.09978400  0.28692079  0.39786203     0.66500
H211        H  0.15477764  0.24768132  0.33748897     0.15400
H212        H  0.12569766  0.41507310  0.30823821     0.15100
N213        N  0.18088467  0.37959664  0.25076393     0.74200
O214        O  0.05674572  0.27685195  0.39695537    -0.39300
O215        O  0.12251844  0.28301021  0.43403019    -0.39200
O216        O  0.15499052  0.39894907  0.22183016    -0.39900
O217        O  0.21800232  0.40018886  0.26189733    -0.40000
C218        C  0.10928748  0.31660252  0.14874238    -0.12200
C219        C  0.12859738  0.35562090  0.12652222     0.04800
C220        C  0.17689504  0.36456780  0.13189543    -0.07500
C221        C  0.20394850  0.33699449  0.16109283    -0.08300
C222        C  0.18373783  0.30099001  0.18658532    -0.02800
C223        C  0.13666936  0.28910960  0.17830196     0.04000
N224        N  0.11761576  0.24736678  0.19707317     0.66500
H225        H  0.07279454  0.30772250  0.14340988     0.15400
H226        H  0.24054406  0.34570858  0.16577257     0.15100
N227        N  0.19886391  0.40266157  0.10938817     0.74200
O228        O  0.09484215  0.24908356  0.23311746    -0.39300
O229        O  0.13087615  0.20837344  0.18234012    -0.39200
O230        O  0.20517524  0.44032827  0.13028489    -0.39900
O231        O  0.22282941  0.39463155  0.07486555    -0.40000
C232        C  0.82151918  0.28785108  0.14683635    -0.12200
C233        C  0.82955144  0.28910304  0.19362974     0.04800
C234        C  0.87074100  0.31318156  0.20739942    -0.07500
C235        C  0.89087363  0.34678960  0.17860067    -0.08300
C236        C  0.87701489  0.35061334  0.13351193    -0.02800
C237        C  0.84441601  0.31796345  0.11709318     0.04000
N238        N  0.83369540  0.31474266  0.07038475     0.66500
H239        H  0.79792937  0.26273909  0.13212648     0.15400
H240        H  0.92078449  0.36676825  0.19015742     0.15100
N241        N  0.89870994  0.29659092  0.24409757     0.74200
O242        O  0.85496647  0.28495462  0.04705656    -0.39300
O243        O  0.79550234  0.33124588  0.05602004    -0.39200
O244        O  0.90926100  0.25388582  0.24566878    -0.39900
O245        O  0.92244149  0.32502694  0.26711536    -0.40000
C246        C  0.81797968  0.34597918  0.29337832    -0.12200
C247        C  0.82021767  0.29754134  0.30117286     0.04800
C248        C  0.84464680  0.28188818  0.33959469    -0.07500
C249        C  0.86725134  0.31395407  0.36805582    -0.08300
C250        C  0.86705008  0.36222246  0.35919780    -0.02800
C251        C  0.84194424  0.37802941  0.32096668     0.04000
N252        N  0.84075857  0.42626054  0.30898771     0.66500
H253        H  0.79830991  0.35904127  0.26486111     0.15400
H254        H  0.88629137  0.30054215  0.39680919     0.15100
N255        N  0.84860993  0.23330420  0.34940044     0.74200
O256        O  0.87091634  0.44177753  0.28199693    -0.39300
O257        O  0.80358957  0.44912645  0.31504423    -0.39200
O258        O  0.88550354  0.21211946  0.33837423    -0.39900
O259        O  0.82254210  0.21564740  0.37894538    -0.40000
C260        C  0.82083498  0.64494291  0.37483375    -0.12200
C261        C  0.86855912  0.64685994  0.36617809     0.04800
C262        C  0.88453273  0.67424555  0.33008096    -0.07500
C263        C  0.85226506  0.69881628  0.30308787    -0.08300
C264        C  0.80360590  0.69536115  0.31023113    -0.02800
C265        C  0.78829777  0.66791461  0.34734473     0.04000
N266        N  0.74025283  0.65718810  0.35502619     0.66500
H267        H  0.80827453  0.62317025  0.40202345     0.15400
H268        H  0.86541242  0.72010002  0.27587860     0.15100
N269        N  0.93334639  0.67733804  0.32028988     0.74200
O270        O  0.72690235  0.61656027  0.34533879    -0.39300
O271        O  0.71940078  0.67813412  0.38624503    -0.39200
O272        O  0.94975771  0.65459987  0.28784298    -0.39900
O273        O  0.95740324  0.70960225  0.33752658    -0.40000
C274        C  0.84797039  0.62000537  0.17976012    -0.12200
C275        C  0.86983763  0.64159196  0.14302086     0.04800
C276        C  0.86262867  0.69038728  0.13802698    -0.07500
C277        C  0.83266295  0.71506111  0.16754705    -0.08300
C278        C  0.81000185  0.69321315  0.20385670    -0.02800
C279        C  0.81868257  0.64459493  0.20973126     0.04000
N280        N  0.79639421  0.61849300  0.24448112     0.66500
H281        H  0.85255478  0.58286132  0.18472863     0.15400
H282        H  0.82749413  0.75209048  0.16223593     0.15100
N283        N  0.88709548  0.71626693  0.10457207     0.74200
O284        O  0.75249012  0.61907758  0.24770856    -0.39300
O285        O  0.81954500  0.58921155  0.26716700    -0.39200
O286        O  0.86470423  0.73230155  0.07140308    -0.39900
O287        O  0.92675268  0.73314570  0.11404349    -0.40000
C288        C  0.62446385  0.13068990  0.31500969    -0.12200
C289        C  0.64453775  0.11440443  0.35472301     0.04800
C290        C  0.69308349  0.12200473  0.36135474    -0.07500
C291        C  0.71901892  0.14808364  0.32987853    -0.08300
C292        C  0.69783972  0.16831550  0.29183724    -0.02800
C293        C  0.64934713  0.15829103  0.28452958     0.04000
N294        N  0.62145395  0.18092680  0.25138067     0.66500
H295        H  0.58736857  0.12535139  0.30892686     0.15400
H296        H  0.75583862  0.15445208  0.33644096     0.15100
N297        N  0.71695375  0.10381911  0.39968327     0.74200
O298        O  0.60402426  0.15582952  0.22094652    -0.39300
O299        O  0.59740124  0.21491531  0.26453705    -0.39200
O300        O  0.74198546  0.06789986  0.39530387    -0.39900
O301        O  0.72345938  0.12987853  0.43311261    -0.40000
C302        C  0.66850053  0.20574270  0.15735804    -0.12200
C303        C  0.69908673  0.18220309  0.18703723     0.04800
C304        C  0.70145286  0.13303754  0.18507194    -0.07500
C305        C  0.67123600  0.10880070  0.15610559    -0.08300
C306        C  0.63970730  0.13283549  0.12818341    -0.02800
C307        C  0.63968364  0.18160975  0.12766595     0.04000
N308        N  0.61007396  0.20721952  0.09774150     0.66500
H309        H  0.66509635  0.24325245  0.15808772     0.15400
H310        H  0.67234435  0.07103570  0.15539796     0.15100
N311        N  0.73473838  0.10728564  0.21110407     0.74200
O312        O  0.57166043  0.22308421  0.11178562    -0.39300
O313        O  0.62713870  0.22339751  0.06200979    -0.39200
O314        O  0.72034944  0.08097090  0.24207830    -0.39900
O315        O  0.77497983  0.10041291  0.19514489    -0.40000
C316        C  0.31138851  0.13251006  0.13168523    -0.12200
C317        C  0.35745678  0.12062749  0.14412609     0.04800
C318        C  0.37359280  0.13566462  0.18671259    -0.07500
C319        C  0.34538245  0.16415869  0.21363190    -0.08300
C320        C  0.29934502  0.17620468  0.20139990    -0.02800
C321        C  0.28239459  0.15936770  0.15977599     0.04000
N322        N  0.23547095  0.16852658  0.14549573     0.66500
H323        H  0.29745830  0.12078073  0.09981663     0.15400
H324        H  0.36104835  0.17838388  0.24343006     0.15100
N325        N  0.41832421  0.12204614  0.20397262     0.74200
O326        O  0.22830411  0.19922843  0.11588919    -0.39300
O327        O  0.20465115  0.13773007  0.15201513    -0.39200
O328        O  0.45188206  0.15064511  0.20252422    -0.39900
O329        O  0.42050793  0.08817605  0.23099791    -0.40000
C330        C  0.30991385  0.10722871  0.34775028    -0.12200
C331        C  0.35278338  0.12456247  0.36454519     0.04800
C332        C  0.36658284  0.16960884  0.35126218    -0.07500
C333        C  0.33731135  0.19629897  0.32364337    -0.08300
C334        C  0.29510342  0.17964546  0.30566908    -0.02800
C335        C  0.28167171  0.13381062  0.31784071     0.04000
N336        N  0.24007872  0.11339303  0.29981957     0.66500
H337        H  0.29887736  0.07207112  0.35683635     0.15400
H338        H  0.35012149  0.23138620  0.31340377     0.15100
N339        N  0.41046710  0.18862787  0.36532882     0.74200
O340        O  0.24315239  0.08726758  0.26602057    -0.39300
O341        O  0.20377361  0.11147843  0.32370628    -0.39200
O342        O  0.44470582  0.18742094  0.33877344    -0.39900
O343        O  0.41145230  0.21665422  0.39781149    -0.40000
C344        C  0.62643270  0.86634990  0.17666599    -0.12200
C345        C  0.64745551  0.88261016  0.13757276     0.04800
C346        C  0.69563702  0.87328374  0.13108021    -0.07500
C347        C  0.72063357  0.84650413  0.16288446    -0.08300
C348        C  0.69891414  0.82951810  0.20182142    -0.02800
C349        C  0.65106252  0.84054506  0.20839303     0.04000
N350        N  0.62483175  0.82225014  0.24466797     0.66500
H351        H  0.58949820  0.87244531  0.18254625     0.15400
H352        H  0.75713123  0.83837595  0.15683516     0.15100
N353        N  0.71999202  0.89083988  0.09298620     0.74200
O354        O  0.60981224  0.78156356  0.24022046    -0.39300
O355        O  0.60171636  0.84988132  0.26881438    -0.39200
O356        O  0.74523254  0.92668232  0.09731798    -0.39900
O357        O  0.72631470  0.86444666  0.05984718    -0.40000
C358        C  0.71269530  0.82496432  0.35657747    -0.12200
C359        C  0.71228228  0.83383314  0.30996933     0.04800
C360        C  0.69593080  0.87886008  0.29740091    -0.07500
C361        C  0.66352190  0.90187580  0.32543490    -0.08300
C362        C  0.65430566  0.88524725  0.36875482    -0.02800
C363        C  0.68431614  0.85045188  0.38601500     0.04000
N364        N  0.68488710  0.83879530  0.43264658     0.66500
H365        H  0.73368745  0.79725585  0.37077110     0.15400
H366        H  0.64718555  0.93400757  0.31431549     0.15100
N367        N  0.71644529  0.90420679  0.26090497     0.74200
O368        O  0.66096320  0.80476134  0.44657617    -0.39300
O369        O  0.71751395  0.85442842  0.45698305    -0.39200
O370        O  0.69379756  0.93637848  0.24159460    -0.39900
O371        O  0.75978246  0.90038791  0.25351754    -0.40000
C372        C  0.35150071  0.82579124  0.37829575    -0.12200
C373        C  0.35767786  0.87177028  0.36486967     0.04800
C374        C  0.33608598  0.88683204  0.32482303    -0.07500
C375        C  0.30854771  0.85577294  0.29943998    -0.08300
C376        C  0.30474068  0.80808532  0.31062942    -0.02800
C377        C  0.32655352  0.79366927  0.35201813     0.04000
N378        N  0.32584454  0.74697515  0.36885310     0.66500
H379        H  0.36773406  0.81399329  0.40925046     0.15400
H380        H  0.29080812  0.86928723  0.27005097     0.15100
N381        N  0.34181777  0.93352845  0.30913871     0.74200
O382        O  0.29517652  0.73673759  0.39759546    -0.39300
O383        O  0.36421391  0.72524105  0.37060296    -0.39200
O384        O  0.37153011  0.94168327  0.27894980    -0.39900
O385        O  0.30987594  0.96291413  0.31630113    -0.40000
C386        C  0.31918893  0.86304316  0.13711201    -0.12200
C387        C  0.36761977  0.86822848  0.14480278     0.04800
C388        C  0.38668625  0.84595715  0.18343501    -0.07500
C389        C  0.35794199  0.81885530  0.21187485    -0.08300
C390        C  0.30957812  0.81377580  0.20399893    -0.02800
C391        C  0.29041305  0.83667479  0.16604372     0.04000
N392        N  0.24130748  0.83464778  0.15682936     0.66500
H393        H  0.30308879  0.88016963  0.10854392     0.15400
H394        H  0.37394081  0.80059196  0.23982797     0.15100
N395        N  0.43543189  0.84910059  0.19397113     0.74200
O396        O  0.21533771  0.86688930  0.17107608    -0.39300
O397        O  0.22665933  0.80906841  0.12543059    -0.39200
O398        O  0.44843405  0.87577972  0.22518451    -0.39900
O399        O  0.46241151  0.81682207  0.18161848    -0.40000
C400        C  0.29311974  0.63244685  0.33038932    -0.12200
C401        C  0.31986451  0.65864433  0.30020444     0.04800
C402        C  0.36909577  0.65414302  0.30029324    -0.07500
C403        C  0.39016825  0.62473731  0.33168961    -0.08300
C404        C  0.36329031  0.60021473  0.36319907    -0.02800
C405        C  0.31417756  0.60243943  0.36105767     0.04000
N406        N  0.28513897  0.57730882  0.39155789     0.66500
H407        H  0.25546710  0.63632510  0.33122289     0.15400
H408        H  0.42811645  0.62350674  0.33333921     0.15100
N409        N  0.39856023  0.68309870  0.27327879     0.74200
O410        O  0.27046354  0.59763633  0.42617564    -0.39300
O411        O  0.26390360  0.54148392  0.37776398    -0.39200
O412        O  0.40948088  0.72310512  0.28736449    -0.39900
O413        O  0.42436175  0.66414942  0.24437602    -0.40000
C414        C  0.35723817  0.69304745  0.16882335    -0.12200
C415        C  0.32767873  0.66819593  0.19751285     0.04800
C416        C  0.32784576  0.61891825  0.19628758    -0.07500
C417        C  0.35682584  0.59604137  0.16646134    -0.08300
C418        C  0.38491507  0.62083923  0.13682310    -0.02800
C419        C  0.38604296  0.66994928  0.13870076     0.04000
N420        N  0.41432970  0.69711649  0.10917534     0.66500
H421        H  0.35772956  0.73077413  0.16943956     0.15400
H422        H  0.35556940  0.55826848  0.16519745     0.15100
N423        N  0.29556251  0.59089323  0.22051651     0.74200
O424        O  0.39605802  0.71392685  0.07410656    -0.39300
O425        O  0.45218167  0.71419690  0.12372364    -0.39200
O426        O  0.26167354  0.57402586  0.19860900    -0.39900
O427        O  0.31103965  0.56792881  0.25354841    -0.40000
C428        C  0.65142633  0.64019840  0.28578450    -0.12200
C429        C  0.65070041  0.68809560  0.29374452     0.04800
C430        C  0.62022485  0.70550347  0.32691984    -0.07500
C431        C  0.59601686  0.67457186  0.35411724    -0.08300
C432        C  0.60098526  0.62662321  0.34876529    -0.02800
C433        C  0.62726705  0.60946214  0.31309145     0.04000
N434        N  0.63223227  0.56098706  0.30553226     0.66500
H435        H  0.67195020  0.62578994  0.25858742     0.15400
H436        H  0.57413449  0.68855476  0.38062416     0.15100
N437        N  0.60971877  0.75368469  0.33172857     0.74200
O438        O  0.60522906  0.54167110  0.27761833    -0.39300
O439        O  0.67161141  0.54301285  0.31369328    -0.39200
O440        O  0.62622760  0.77394587  0.36555123    -0.39900
O441        O  0.57053177  0.76749490  0.31709321    -0.40000
C442        C  0.69400221  0.66326579  0.16071562    -0.12200
C443        C  0.66477501  0.68652418  0.19142666     0.04800
C444        C  0.61540934  0.67739124  0.18934450    -0.07500
C445        C  0.59811736  0.64784924  0.15653713    -0.08300
C446        C  0.62747707  0.62749627  0.12540733    -0.02800
C447        C  0.67584841  0.63427414  0.12778977     0.04000
N448        N  0.70661373  0.61417480  0.09549182     0.66500
H449        H  0.73147737  0.66781339  0.16149812     0.15400
H450        H  0.56062219  0.64178727  0.15467225     0.15100
N451        N  0.58063630  0.69852997  0.21693312     0.74200
O452        O  0.70849158  0.63113137  0.05647271    -0.39300
O453        O  0.72549791  0.57525449  0.10350664    -0.39200
O454        O  0.55315893  0.72702944  0.19801780    -0.39900
O455        O  0.56398231  0.67440956  0.24847163    -0.40000
C456        C  0.62728443  0.32348766  0.36712240    -0.12200
C457        C  0.62978959  0.37162504  0.36220905     0.04800
C458        C  0.66179504  0.39111612  0.33195079    -0.07500
C459        C  0.68913362  0.36224415  0.30573733    -0.08300
C460        C  0.68541263  0.31391134  0.30943950    -0.02800
C461        C  0.65560336  0.29440605  0.34227010     0.04000
N462        N  0.65401430  0.24596679  0.35294980     0.66500
H463        H  0.60465954  0.30792071  0.39212067     0.15400
H464        H  0.71324887  0.37786512  0.28212012     0.15100
N465        N  0.66597670  0.43994299  0.32584830     0.74200
O466        O  0.68429122  0.23071961  0.38018258    -0.39300
O467        O  0.61442741  0.22636758  0.35256087    -0.39200
O468        O  0.69826950  0.46097980  0.34657459    -0.39900
O469        O  0.64998624  0.45711294  0.28997855    -0.40000
C470        C  0.71297955  0.36318904  0.18267448    -0.12200
C471        C  0.68567583  0.33151061  0.20738705     0.04800
C472        C  0.63644587  0.33381504  0.20333104    -0.07500
C473        C  0.61620994  0.36386485  0.17213018    -0.08300
C474        C  0.64360359  0.39129050  0.14382337    -0.02800
C475        C  0.69228746  0.39354196  0.15138041     0.04000
N476        N  0.72137018  0.42441272  0.12626704     0.66500
H477        H  0.75078879  0.36285693  0.18621427     0.15400
H478        H  0.57847383  0.36290903  0.16771298     0.15100
N479        N  0.60602954  0.30212342  0.22552771     0.74200
O480        O  0.73195048  0.46355241  0.14262587    -0.39300
O481        O  0.74468902  0.40881057  0.09383782    -0.39200
O482        O  0.58837941  0.31459878  0.26225208    -0.39900
O483        O  0.58327955  0.27396857  0.20133584    -0.40000
C484        C  0.32912724  0.36442152  0.37833839    -0.12200
C485        C  0.37768801  0.36304666  0.37364874     0.04800
C486        C  0.39747670  0.33909836  0.33738733    -0.07500
C487        C  0.36799254  0.31744844  0.30630404    -0.08300
C488        C  0.31888829  0.31891993  0.31089387    -0.02800
C489        C  0.29962945  0.34267980  0.34793421     0.04000
N490        N  0.25047164  0.34722202  0.35527864     0.66500
H491        H  0.31342535  0.38239749  0.40640898     0.15400
H492        H  0.38385597  0.29831480  0.27925027     0.15100
N493        N  0.44695231  0.33757127  0.33063321     0.74200
O494        O  0.23169615  0.31979675  0.38301397    -0.39300
O495        O  0.23281691  0.38727445  0.35075668    -0.39200
O496        O  0.46879709  0.30035857  0.33926354    -0.39900
O497        O  0.46560990  0.36746495  0.30525964    -0.40000
C498        C  0.37082501  0.38794962  0.17793100    -0.12200
C499        C  0.39851598  0.36104309  0.14965857     0.04800
C500        C  0.39727868  0.31214458  0.15372828    -0.07500
C501        C  0.36465419  0.29140524  0.18242347    -0.08300
C502        C  0.33384222  0.31847307  0.20804346    -0.02800
C503        C  0.33859568  0.36756762  0.20684398     0.04000
N504        N  0.30834340  0.39824038  0.23042588     0.66500
H505        H  0.37219173  0.42568854  0.17576517     0.15400
H506        H  0.36249465  0.25379308  0.18361770     0.15100
N507        N  0.42684192  0.28294660  0.12752120     0.74200
O508        O  0.28244011  0.42470790  0.20723678    -0.39300
O509        O  0.32117583  0.41214924  0.26862126    -0.39200
O510        O  0.46285696  0.26538929  0.14551483    -0.39900
O511        O  0.41101822  0.26546066  0.09178993    -0.40000
N512        N  0.60244394  0.45020263  0.54654849    -0.06100
N513        N  0.63492727  0.44809841  0.57833980    -0.58200
N514        N  0.56336259  0.40896151  0.94683832    -0.05800
N515        N  0.56935504  0.37906244  0.91424738    -0.60300
N516        N  0.59332027  0.44336378  0.94313883    -0.05400
N517        N  0.62050540  0.43784103  0.90818132    -0.58200
N518        N  0.57208110  0.41606425  0.55111359    -0.05100
N519        N  0.58288252  0.39027038  0.58609750    -0.60700
C520        C  0.62197879  0.41050277  0.60287095     0.96100
C521        C  0.60493933  0.39766978  0.89038946     0.95900
N522        N  0.42142815  0.42894244  0.95756340    -0.06300
N523        N  0.38985210  0.42003293  0.92678666    -0.58800
N524        N  0.46347487  0.40502292  0.56111418    -0.04400
N525        N  0.46034633  0.37392146  0.59372376    -0.60000
N526        N  0.42934097  0.43563344  0.56366048    -0.06300
N527        N  0.40251344  0.42633621  0.59822803    -0.59100
N528        N  0.45592347  0.39875109  0.95545142    -0.04000
N529        N  0.44839114  0.36826701  0.92307407    -0.60100
Mn530      Mn  0.51259839  0.40680327  0.50512192     1.18400
C531        C  0.40696869  0.38233069  0.90550142     0.98200
C532        C  0.42235592  0.38805103  0.61683945     0.98800
N533        N  0.58390402  0.54890793  0.93647196    -0.06300
N534        N  0.60967602  0.55795969  0.90088604    -0.62600
N535        N  0.55646083  0.58637382  0.54204168    -0.05100
N536        N  0.56297653  0.61687606  0.57406480    -0.63300
N537        N  0.59174283  0.55721024  0.54021570    -0.05800
N538        N  0.62338751  0.56699932  0.57080681    -0.62900
N539        N  0.54778050  0.57706393  0.93792093    -0.04700
N540        N  0.54780327  0.60574070  0.90370037    -0.63600
Mn541      Mn  0.59571154  0.49877170  0.99063661     1.10700
C542        C  0.58619569  0.59326269  0.88065797     0.99400
C543        C  0.60480168  0.60425390  0.59138293     0.99500
N544        N  0.42013423  0.54540277  0.55863664    -0.05800
N545        N  0.39200440  0.55478413  0.59215515    -0.61200
N546        N  0.44112246  0.57025470  0.94837507    -0.05200
N547        N  0.42950625  0.59834569  0.91547459    -0.57900
N548        N  0.41019084  0.53677173  0.95287683    -0.06500
N549        N  0.37613920  0.54158940  0.92300934    -0.60800
N550        N  0.44979978  0.57981616  0.55271859    -0.05500
N551        N  0.44275715  0.61342160  0.58169447    -0.58000
Mn552      Mn  0.41701024  0.48771519  0.51085972     1.20200
Mn553      Mn  0.49986853  0.57842104  0.99340714     1.10100
Cl554      Cl  0.50484771  0.49429843  0.50172446    -0.85900
C555        C  0.40685789  0.59718463  0.60614228     0.96400
C556        C  0.38921182  0.58008526  0.89981307     0.96200
N557        N  0.41151744  0.94433195  0.55891820    -0.06100
N558        N  0.37819550  0.91551693  0.57304324    -0.58200
N559        N  0.44202129  0.05262604  0.58685449    -0.05800
N560        N  0.43058492  0.07975290  0.62082191    -0.60300
N561        N  0.40781918  0.05121945  0.55704927    -0.05400
N562        N  0.37243915  0.07748781  0.57079549    -0.58200
N563        N  0.44541968  0.94624966  0.58911579    -0.05100
N564        N  0.43572113  0.91868622  0.62365726    -0.60700
C565        C  0.39379743  0.89909906  0.61334403     0.96100
C566        C  0.38721497  0.09555875  0.61056714     0.95900
N567        N  0.58574684  0.05748374  0.55030662    -0.06300
N568        N  0.61953544  0.08747060  0.55916720    -0.58800
N569        N  0.55795104  0.95123544  0.58566801    -0.04400
N570        N  0.57163201  0.92513567  0.61964712    -0.60000
N571        N  0.59047453  0.95193275  0.55461191    -0.06300
N572        N  0.62694179  0.92644464  0.56712913    -0.59100
N573        N  0.55429398  0.05736039  0.58246373    -0.07200
N574        N  0.56648447  0.08742792  0.61393113    -0.60100
Mn575      Mn  0.50000258  0.00184450  0.58625098     1.18400
C576        C  0.60664260  0.10660611  0.59836539     0.98200
C577        C  0.61457661  0.90962295  0.60774292     0.98800
N578        N  0.40715073  0.05026443  0.94669467    -0.06300
N579        N  0.37036216  0.07563379  0.93419533    -0.62600
N580        N  0.44415813  0.94665402  0.91553316    -0.05100
N581        N  0.43062296  0.92162078  0.88057973    -0.63300
N582        N  0.41220695  0.94471748  0.94747114    -0.05800
N583        N  0.37699234  0.91773434  0.93467343    -0.62900
N584        N  0.43942202  0.05130001  0.91494564    -0.04700
N585        N  0.42462897  0.07708649  0.88068473    -0.63600
Mn586      Mn  0.40834180  0.99731426  0.50244080     1.10700
C587        C  0.38176268  0.09252989  0.89312777     0.99400
C588        C  0.38889245  0.90365777  0.89301552     0.99500
N589        N  0.59135051  0.95115552  0.94810362    -0.05800
N590        N  0.62928060  0.92732012  0.93784265    -0.61200
N591        N  0.55555598  0.05498242  0.91306417    -0.05200
N592        N  0.57003300  0.07704656  0.87671810    -0.57900
N593        N  0.58888440  0.05570288  0.94382659    -0.06500
N594        N  0.62626641  0.07810163  0.92863166    -0.60800
N595        N  0.56041113  0.95015233  0.91511333    -0.05500
N596        N  0.57796235  0.92603509  0.88121401    -0.58000
Mn597      Mn  0.58807458  0.00282044  0.49958963     1.20200
Mn598      Mn  0.49967204  0.00080430  0.91452337     1.10100
Cl599      Cl  0.49841725  0.00025902  0.50060261    -0.85900
C600        C  0.62058572  0.91138304  0.89631858     0.96400
C601        C  0.61409866  0.09155591  0.88671650     0.96200
N602        N  0.94306913  0.59132221  0.55695396    -0.06100
N603        N  0.91676020  0.62672090  0.57071140    -0.58200
N604        N  0.05044805  0.55705860  0.58505422    -0.05800
N605        N  0.07886160  0.56907919  0.61828199    -0.60300
N606        N  0.04959555  0.59020174  0.55432359    -0.05400
N607        N  0.07741503  0.62501800  0.56604561    -0.58200
N608        N  0.94337655  0.55774084  0.58740990    -0.05100
N609        N  0.91694944  0.57010742  0.62192628    -0.60700
C610        C  0.90013863  0.61321605  0.61131227     0.96100
C611        C  0.09590362  0.61116815  0.60563300     0.95900
N612        N  0.04994188  0.41135374  0.54918402    -0.06300
N613        N  0.07815471  0.37606493  0.55897839    -0.58800
N614        N  0.94521005  0.44175762  0.58422477    -0.04400
N615        N  0.92209188  0.42496892  0.61915791    -0.60000
N616        N  0.94388520  0.41133772  0.55109201    -0.06300
N617        N  0.91943154  0.37416585  0.56285784    -0.59100
N618        N  0.05149594  0.44299840  0.58125081    -0.04000
N619        N  0.08120535  0.42957428  0.61307506    -0.60100
Mn620      Mn  0.99747881  0.49988540  0.58494077     1.18400
C621        C  0.09802854  0.38808758  0.59851226     0.98200
C622        C  0.90555145  0.38310501  0.60515092     0.98800
N623        N  0.04865853  0.59113482  0.94717707    -0.06300
N624        N  0.07546670  0.62669434  0.93487003    -0.62600
N625        N  0.94405422  0.56061942  0.91346892    -0.05100
N626        N  0.91989560  0.57553207  0.87828281    -0.63300
N627        N  0.94313241  0.59204109  0.94575403    -0.05800
N628        N  0.91804121  0.62854589  0.93289627    -0.62900
N629        N  0.04924253  0.55830623  0.91631180    -0.04700
N630        N  0.07649348  0.57100553  0.88296573    -0.63600
Mn631      Mn  0.99560205  0.59189480  0.50113472     1.10700
C632        C  0.09296008  0.61350700  0.89476664     0.99400
C633        C  0.90400721  0.61786022  0.89080059     0.99500
N634        N  0.94085469  0.41366500  0.94162173    -0.05800
N635        N  0.91363210  0.37886247  0.92857655    -0.61200
N636        N  0.04770159  0.44499393  0.91121397    -0.05200
N637        N  0.07247934  0.43194349  0.87605263    -0.57900
N638        N  0.04723687  0.41133579  0.94135315    -0.06500
N639        N  0.07153003  0.37500486  0.92692477    -0.60800
N640        N  0.94090471  0.44687026  0.91092472    -0.05500
N641        N  0.91353754  0.43490155  0.87670226    -0.58000
Mn642      Mn  0.99514656  0.41275040  0.49592693     1.20200
Mn643      Mn  0.99549121  0.50274229  0.91299880     1.10100
Cl644      Cl  0.99529549  0.50217124  0.49895460    -0.85900
C645        C  0.89613430  0.39246555  0.88827523     0.96400
C646        C  0.08743949  0.38822944  0.88612340     0.96200
C647        C  0.26175306  0.25944792  0.70624584     0.45500
H648        H  0.26791713  0.26031522  0.66951741    -0.03500
C649        C  0.24833135  0.25833671  0.79167386     0.45500
H650        H  0.24246135  0.25742563  0.82826608    -0.03500
C651        C  0.29512564  0.29213489  0.73192740    -0.17200
C652        C  0.21243223  0.27635261  0.71940597    -0.17000
C653        C  0.27024390  0.21071329  0.72721798    -0.17400
C654        C  0.28778982  0.29152538  0.77729973    -0.17300
C655        C  0.20505366  0.27687656  0.76528840    -0.16900
C656        C  0.26483301  0.20993032  0.77353391    -0.17200
C657        C  0.74628464  0.25775551  0.70387238     0.45500
H658        H  0.74276516  0.26389673  0.66758285    -0.03500
C659        C  0.74786525  0.24575403  0.78925963     0.45500
H660        H  0.74970175  0.24092100  0.82593349    -0.03500
C661        C  0.71471337  0.29207897  0.72901142    -0.17200
C662        C  0.72819435  0.20928815  0.71790517    -0.17000
C663        C  0.79632076  0.26496895  0.72358924    -0.17400
C664        C  0.71475176  0.28463188  0.77451566    -0.17300
C665        C  0.72816957  0.20275291  0.76376478    -0.16900
C666        C  0.79598279  0.26186733  0.77017462    -0.17200
C667        C  0.26232438  0.73639316  0.70923301     0.45500
H668        H  0.26521501  0.73889262  0.67224286    -0.03500
C669        C  0.25712509  0.73088573  0.79509957     0.45500
H670        H  0.25289199  0.72738814  0.83135816    -0.03500
C671        C  0.29401351  0.69835813  0.72953049    -0.17200
C672        C  0.27839598  0.78165675  0.73267843    -0.17000
C673        C  0.21269328  0.72248071  0.72525665    -0.17400
C674        C  0.29148689  0.69593369  0.77515057    -0.17300
C675        C  0.27691552  0.77854928  0.77944560    -0.16900
C676        C  0.21028886  0.71946925  0.77143229    -0.17200
C677        C  0.73438727  0.74918857  0.70897850     0.45500
H678        H  0.73783442  0.75151290  0.67198853    -0.03500
C679        C  0.72670254  0.74497015  0.79467657     0.45500
H680        H  0.72190385  0.74145974  0.83069725    -0.03500
C681        C  0.69149997  0.72071583  0.72364404    -0.17200
C682        C  0.77672550  0.72373286  0.73159121    -0.17000
C683        C  0.72594541  0.79757077  0.73115353    -0.17400
C684        C  0.68681022  0.71950802  0.76932542    -0.17300
C685        C  0.77266443  0.72213319  0.77793021    -0.16900
C686        C  0.72558011  0.79624014  0.77771855    -0.17200
C687        C  0.10352119  0.67077540  0.66629426    -0.12200
C688        C  0.12487462  0.64158275  0.63464715     0.04800
C689        C  0.17378839  0.64210772  0.63089220    -0.07500
C690        C  0.20067180  0.66943794  0.65990873    -0.08300
C691        C  0.18016377  0.69791226  0.69295304    -0.02800
C692        C  0.13049336  0.69935378  0.69499620     0.04000
N693        N  0.10669379  0.73031506  0.72461283     0.66500
H694        H  0.06564321  0.67161983  0.66853422     0.15400
H695        H  0.23825903  0.66644408  0.65718230     0.15100
N696        N  0.19704839  0.61429343  0.59825468     0.74200
O697        O  0.10025296  0.77197114  0.71238794    -0.39300
O698        O  0.08102969  0.71352767  0.75497287    -0.39200
O699        O  0.21102240  0.63331329  0.56256900    -0.39900
O700        O  0.21391346  0.57539821  0.60978789    -0.40000
C701        C  0.13539700  0.62237962  0.82371261    -0.12200
C702        C  0.12055518  0.64320928  0.86334930     0.04800
C703        C  0.13224727  0.69049870  0.87054096    -0.07500
C704        C  0.15790178  0.71526823  0.83796254    -0.08300
C705        C  0.17427849  0.69364750  0.79871886    -0.02800
C706        C  0.16319734  0.64580904  0.79264676     0.04000
N707        N  0.18588741  0.61708464  0.76068824     0.66500
H708        H  0.12826020  0.58578868  0.81777301     0.15400
H709        H  0.16727220  0.75123679  0.84454104     0.15100
N710        N  0.12033806  0.71356807  0.91119749     0.74200
O711        O  0.21645067  0.58972999  0.77622297    -0.39300
O712        O  0.16194706  0.60306908  0.72776807    -0.39200
O713        O  0.15084460  0.71683357  0.94177529    -0.39900
O714        O  0.08546931  0.74055887  0.91162889    -0.40000
C715        C  0.14646553  0.28311619  0.82831421    -0.12200
C716        C  0.16762538  0.30427961  0.79065974     0.04800
C717        C  0.15799099  0.35266616  0.78408054    -0.07500
C718        C  0.13148201  0.37791790  0.81516198    -0.08300
C719        C  0.11308023  0.35750550  0.85362794    -0.02800
C720        C  0.11918239  0.30889198  0.85915041     0.04000
N721        N  0.09724666  0.28494643  0.89538288     0.66500
H722        H  0.15219556  0.24632743  0.83456053     0.15400
H723        H  0.12690853  0.41501118  0.80962049     0.15100
N724        N  0.17772561  0.37948855  0.74893196     0.74200
O725        O  0.05395465  0.27617887  0.89343568    -0.39300
O726        O  0.11922891  0.27892352  0.93170564    -0.39200
O727        O  0.14968582  0.39649311  0.72048173    -0.39900
O728        O  0.21360980  0.40288420  0.75849067    -0.40000
C729        C  0.10887887  0.31716499  0.64738591    -0.12200
C730        C  0.12832513  0.35647995  0.62581310     0.04800
C731        C  0.17648627  0.36561982  0.63160609    -0.07500
C732        C  0.20351942  0.33756027  0.66034543    -0.08300
C733        C  0.18318625  0.30109768  0.68513050    -0.02800
C734        C  0.13612258  0.28935226  0.67669953     0.04000
N735        N  0.11688931  0.24757716  0.69525852     0.66500
H736        H  0.07238778  0.30840229  0.64185424     0.15400
H737        H  0.24005017  0.34632736  0.66545579     0.15100
N738        N  0.19805531  0.40477870  0.61047576     0.74200
O739        O  0.09449911  0.24912553  0.73153445    -0.39300
O740        O  0.12979384  0.20862870  0.68013738    -0.39200
O741        O  0.20419856  0.44166163  0.63267059    -0.39900
O742        O  0.22100266  0.39869143  0.57496878    -0.40000
C743        C  0.82745372  0.28432860  0.64636388    -0.12200
C744        C  0.83459787  0.28540596  0.69318440     0.04800
C745        C  0.87560363  0.30936727  0.70779441    -0.07500
C746        C  0.89592063  0.34352650  0.67969179    -0.08300
C747        C  0.88232048  0.34798892  0.63457591    -0.02800
C748        C  0.85060125  0.31492300  0.61733050     0.04000
N749        N  0.84084542  0.31199050  0.57044451     0.66500
H750        H  0.80396448  0.25936153  0.63124483     0.15400
H751        H  0.92560342  0.36348975  0.69180185     0.15100
N752        N  0.90353742  0.29189372  0.74414681     0.74200
O753        O  0.86132595  0.28128942  0.54755773    -0.39300
O754        O  0.80422989  0.33082460  0.55502045    -0.39200
O755        O  0.91783194  0.25030077  0.74241725    -0.39900
O756        O  0.92473625  0.32011096  0.76952830    -0.40000
C757        C  0.82063116  0.34336777  0.79167788    -0.12200
C758        C  0.82323890  0.29497670  0.79968954     0.04800
C759        C  0.84760238  0.27972416  0.83829218    -0.07500
C760        C  0.86977983  0.31214246  0.86670853    -0.08300
C761        C  0.86902683  0.36040837  0.85776012    -0.02800
C762        C  0.84391157  0.37579795  0.81938874     0.04000
N763        N  0.84145200  0.42405260  0.80773411     0.66500
H764        H  0.80088690  0.35613725  0.76307945     0.15400
H765        H  0.88889140  0.29901697  0.89554083     0.15100
N766        N  0.85193471  0.23123040  0.84834663     0.74200
O767        O  0.86799475  0.43950863  0.77743626    -0.39300
O768        O  0.80528240  0.44688888  0.81787720    -0.39200
O769        O  0.88831380  0.20991296  0.83608418    -0.39900
O770        O  0.82715027  0.21389495  0.87905908    -0.40000
C771        C  0.82548374  0.64832581  0.87442241    -0.12200
C772        C  0.87262049  0.64737580  0.86316602     0.04800
C773        C  0.88772709  0.67282986  0.82539933    -0.07500
C774        C  0.85517090  0.69872933  0.79987551    -0.08300
C775        C  0.80679384  0.69782231  0.80946608    -0.02800
C776        C  0.79248720  0.67209742  0.84811844     0.04000
N777        N  0.74462035  0.66503739  0.85972031     0.66500
H778        H  0.81354086  0.62831101  0.90307486     0.15400
H779        H  0.86788419  0.71887961  0.77172217     0.15100
N780        N  0.93581680  0.67277515  0.81236816     0.74200
O781        O  0.72721421  0.62554981  0.85164579    -0.39300
O782        O  0.72833026  0.68786375  0.89219981    -0.39200
O783        O  0.94799173  0.64962445  0.77848841    -0.39900
O784        O  0.96281920  0.70398339  0.82727023    -0.40000
C785        C  0.84867033  0.62162017  0.67932379    -0.12200
C786        C  0.87035332  0.64289338  0.64243276     0.04800
C787        C  0.86324929  0.69162414  0.63702841    -0.07500
C788        C  0.83352294  0.71661967  0.66647193    -0.08300
C789        C  0.81107994  0.69514003  0.70311509    -0.02800
C790        C  0.81973010  0.64644690  0.70934197     0.04000
N791        N  0.79844292  0.62054914  0.74486616     0.66500
H792        H  0.85333117  0.58451086  0.68449726     0.15400
H793        H  0.82850405  0.75363491  0.66092837     0.15100
N794        N  0.88769043  0.71709832  0.60326789     0.74200
O795        O  0.75514488  0.62378212  0.75144870    -0.39300
O796        O  0.82139959  0.58950664  0.76547325    -0.39200
O797        O  0.86555191  0.73174495  0.56936285    -0.39900
O798        O  0.92709162  0.73462286  0.61263006    -0.40000
C799        C  0.62595296  0.13032549  0.81344993    -0.12200
C800        C  0.64595400  0.11427548  0.85329436     0.04800
C801        C  0.69469862  0.12106472  0.85945308    -0.07500
C802        C  0.72079390  0.14660638  0.82766147    -0.08300
C803        C  0.69967255  0.16695133  0.78963498    -0.02800
C804        C  0.65104319  0.15735045  0.78259637     0.04000
N805        N  0.62321347  0.18011540  0.74949847     0.66500
H806        H  0.58874686  0.12546949  0.80762501     0.15400
H807        H  0.75775171  0.15247764  0.83396706     0.15100
N808        N  0.71869101  0.10231112  0.89745107     0.74200
O809        O  0.60534284  0.15501526  0.71930467    -0.39300
O810        O  0.59954009  0.21436662  0.76266708    -0.39200
O811        O  0.74132449  0.06484780  0.89305980    -0.39900
O812        O  0.72814656  0.12874333  0.92996713    -0.40000
C813        C  0.66979765  0.20549882  0.65577573    -0.12200
C814        C  0.70070083  0.18137349  0.68471821     0.04800
C815        C  0.70251402  0.13222979  0.68216684    -0.07500
C816        C  0.67163071  0.10854938  0.65338284    -0.08300
C817        C  0.63946075  0.13301560  0.62649033    -0.02800
C818        C  0.63967202  0.18187258  0.62670308     0.04000
N819        N  0.60872752  0.20805974  0.59852379     0.66500
H820        H  0.66713333  0.24306359  0.65685701     0.15400
H821        H  0.67258920  0.07079459  0.65216816     0.15100
N822        N  0.73595411  0.10590320  0.70743890     0.74200
O823        O  0.57003899  0.22176015  0.61391305    -0.39300
O824        O  0.62458640  0.22677544  0.56342086    -0.39200
O825        O  0.72182069  0.07960458  0.73853143    -0.39900
O826        O  0.77576222  0.09859106  0.69069586    -0.40000
C827        C  0.31013447  0.13224338  0.63083245    -0.12200
C828        C  0.35732326  0.12375222  0.64185950     0.04800
C829        C  0.37431299  0.14138301  0.68329004    -0.07500
C830        C  0.34498808  0.16763775  0.71128504    -0.08300
C831        C  0.29802683  0.17641881  0.70003849    -0.02800
C832        C  0.28066256  0.15802826  0.65925073     0.04000
N833        N  0.23273409  0.16404013  0.64654463     0.66500
H834        H  0.29569406  0.11858775  0.59991245     0.15400
H835        H  0.35975682  0.18268840  0.74145255     0.15100
N836        N  0.42143320  0.13361123  0.69770484     0.74200
O837        O  0.22242581  0.19403269  0.61710643    -0.39300
O838        O  0.20409204  0.13160113  0.65463885    -0.39200
O839        O  0.45142983  0.16537853  0.69202599    -0.39900
O840        O  0.42954291  0.10187568  0.72606502    -0.40000
C841        C  0.32336782  0.10039513  0.82897946    -0.12200
C842        C  0.34978538  0.12104674  0.86369317     0.04800
C843        C  0.34525234  0.16928439  0.86994838    -0.07500
C844        C  0.31685962  0.19599714  0.84121607    -0.08300
C845        C  0.29112957  0.17656326  0.80527011    -0.02800
C846        C  0.29348042  0.12718999  0.80060434     0.04000
N847        N  0.26363549  0.10308462  0.76980999     0.66500
H848        H  0.32506443  0.06297133  0.82449989     0.15400
H849        H  0.31583890  0.23285852  0.84765039     0.15100
N850        N  0.36984665  0.19223333  0.90530798     0.74200
O851        O  0.28178886  0.08007497  0.73839475    -0.39300
O852        O  0.22249088  0.09318881  0.78185542    -0.39200
O853        O  0.40758715  0.21323994  0.89670032    -0.39900
O854        O  0.34847457  0.20141562  0.94109911    -0.40000
C855        C  0.62528435  0.86709499  0.67852555    -0.12200
C856        C  0.64538632  0.88299621  0.63886797     0.04800
C857        C  0.69360382  0.87451479  0.63180724    -0.07500
C858        C  0.71959046  0.84860337  0.66344184    -0.08300
C859        C  0.69897637  0.83184656  0.70297153    -0.02800
C860        C  0.65103708  0.84245557  0.71040936     0.04000
N861        N  0.62607333  0.82594365  0.74831563     0.66500
H862        H  0.58841292  0.87300082  0.68493250     0.15400
H863        H  0.75609251  0.84100454  0.65680327     0.15100
N864        N  0.71713003  0.89249403  0.59342113     0.74200
O865        O  0.61002899  0.78547932  0.74586354    -0.39300
O866        O  0.60437655  0.85489202  0.77224021    -0.39200
O867        O  0.74180007  0.92876945  0.59741356    -0.39900
O868        O  0.72300855  0.86645412  0.55995185    -0.40000
C869        C  0.71421176  0.82685962  0.85706762    -0.12200
C870        C  0.71473115  0.83614172  0.81051209     0.04800
C871        C  0.69949192  0.88162496  0.79810316    -0.07500
C872        C  0.66778211  0.90548209  0.82609347    -0.08300
C873        C  0.65689792  0.88816372  0.86876344    -0.02800
C874        C  0.68548087  0.85235825  0.88617414     0.04000
N875        N  0.68436556  0.83988057  0.93262598     0.66500
H876        H  0.73431253  0.79866407  0.87141770     0.15400
H877        H  0.65293015  0.93837405  0.81518623     0.15100
N878        N  0.72090226  0.90689036  0.76218557     0.74200
O879        O  0.65394558  0.81153962  0.94669762    -0.39300
O880        O  0.71910859  0.84947503  0.95719866    -0.39200
O881        O  0.69609650  0.93282458  0.73739137    -0.39900
O882        O  0.76457442  0.91366732  0.76357497    -0.40000
C883        C  0.35106681  0.82801089  0.87871285    -0.12200
C884        C  0.35912351  0.87337118  0.86445930     0.04800
C885        C  0.33773376  0.88870827  0.82443234    -0.07500
C886        C  0.30855452  0.85843409  0.79983963    -0.08300
C887        C  0.30282902  0.81111528  0.81179890    -0.02800
C888        C  0.32429368  0.79660110  0.85337368     0.04000
N889        N  0.32055126  0.75077637  0.87195582     0.66500
H890        H  0.36678751  0.81620747  0.90991143     0.15400
H891        H  0.29096310  0.87225555  0.77050513     0.15100
N892        N  0.34484263  0.93504297  0.80828566     0.74200
O893        O  0.28850490  0.74351898  0.90014103    -0.39300
O894        O  0.35762438  0.72714706  0.87580997    -0.39200
O895        O  0.37334371  0.94179399  0.77674401    -0.39900
O896        O  0.31477959  0.96591015  0.81689957    -0.40000
C897        C  0.31686879  0.86333432  0.63682889    -0.12200
C898        C  0.36510600  0.86925916  0.64506240     0.04800
C899        C  0.38398803  0.84756543  0.68406014    -0.07500
C900        C  0.35509268  0.82107627  0.71284404    -0.08300
C901        C  0.30678619  0.81576892  0.70481301    -0.02800
C902        C  0.28799441  0.83718148  0.66584237     0.04000
N903        N  0.23933271  0.83310067  0.65511059     0.66500
H904        H  0.30102762  0.87950568  0.60762150     0.15400
H905        H  0.37098932  0.80329047  0.74113167     0.15100
N906        N  0.43281535  0.85017742  0.69435175     0.74200
O907        O  0.21149360  0.86412030  0.66860330    -0.39300
O908        O  0.22695736  0.80719865  0.62306876    -0.39200
O909        O  0.44628392  0.87662430  0.72556431    -0.39900
O910        O  0.45929016  0.81751263  0.68193439    -0.40000
C911        C  0.29173420  0.63680357  0.83457726    -0.12200
C912        C  0.31757337  0.66334759  0.80392217     0.04800
C913        C  0.36684286  0.65941865  0.80303447    -0.07500
C914        C  0.38879641  0.62866304  0.83251527    -0.08300
C915        C  0.36292389  0.60270650  0.86369014    -0.02800
C916        C  0.31377523  0.60582858  0.86378808     0.04000
N917        N  0.28580760  0.58007004  0.89472818     0.66500
H918        H  0.25408986  0.64056324  0.83637930     0.15400
H919        H  0.42676442  0.62729560  0.83289157     0.15100
N920        N  0.39553524  0.69022983  0.77716000     0.74200
O921        O  0.27139924  0.60001194  0.92965882    -0.39300
O922        O  0.26514416  0.54377465  0.88129344    -0.39200
O923        O  0.40644401  0.72930384  0.79349051    -0.39900
O924        O  0.42131969  0.67323637  0.74714543    -0.40000
C925        C  0.35344463  0.69584269  0.67099242    -0.12200
C926        C  0.32570921  0.67081583  0.70120490     0.04800
C927        C  0.32827746  0.62151082  0.70173172    -0.07500
C928        C  0.35775797  0.59894709  0.67217119    -0.08300
C929        C  0.38334679  0.62386790  0.64070789    -0.02800
C930        C  0.38206453  0.67296221  0.64065497     0.04000
N931        N  0.40680311  0.70015061  0.60835282     0.66500
H932        H  0.35219523  0.73353681  0.67012496     0.15400
H933        H  0.35841380  0.56112514  0.67221693     0.15100
N934        N  0.29740264  0.59271343  0.72678774     0.74200
O935        O  0.38582712  0.71270526  0.57301875    -0.39300
O936        O  0.44335488  0.72159748  0.62033175    -0.39200
O937        O  0.26464669  0.57339101  0.70518040    -0.39900
O938        O  0.31407516  0.57131012  0.76025509    -0.40000
C939        C  0.65550431  0.64069524  0.78386053    -0.12200
C940        C  0.65418861  0.68840434  0.79330199     0.04800
C941        C  0.62410976  0.70416462  0.82744370    -0.07500
C942        C  0.60089980  0.67202740  0.85407866    -0.08300
C943        C  0.60665919  0.62429960  0.84749907    -0.02800
C944        C  0.63312481  0.60862636  0.81127982     0.04000
N945        N  0.64001208  0.56051086  0.80286630     0.66500
H946        H  0.67465393  0.62760664  0.75572885     0.15400
H947        H  0.57904191  0.68489638  0.88093242     0.15100
N948        N  0.61249006  0.75190806  0.83346004     0.74200
O949        O  0.61382143  0.54099000  0.77439955    -0.39300
O950        O  0.68028676  0.54407068  0.81016337    -0.39200
O951        O  0.63107805  0.77248458  0.86606839    -0.39900
O952        O  0.57197757  0.76475247  0.82157706    -0.40000
C953        C  0.69500283  0.66584922  0.66033993    -0.12200
C954        C  0.66644722  0.68977966  0.69113262     0.04800
C955        C  0.61706644  0.68126428  0.68981016    -0.07500
C956        C  0.59889297  0.65107406  0.65809980    -0.08300
C957        C  0.62747185  0.62969474  0.62699620    -0.02800
C958        C  0.67597801  0.63616595  0.62835948     0.04000
N959        N  0.70598187  0.61466593  0.59623429     0.66500
H960        H  0.73252249  0.67019572  0.66054193     0.15400
H961        H  0.56129213  0.64548207  0.65695302     0.15100
N962        N  0.58311271  0.70407994  0.71694415     0.74200
O963        O  0.70727294  0.63023485  0.55666280    -0.39300
O964        O  0.72418439  0.57560118  0.60503360    -0.39200
O965        O  0.55654385  0.73301234  0.69745316    -0.39900
O966        O  0.56597148  0.68134261  0.74917859    -0.40000
C967        C  0.63035650  0.32226124  0.86427482    -0.12200
C968        C  0.63218026  0.37034905  0.85909583     0.04800
C969        C  0.66386662  0.39011910  0.82866086    -0.07500
C970        C  0.69166917  0.36139002  0.80262383    -0.08300
C971        C  0.68872636  0.31296838  0.80672783    -0.02800
C972        C  0.65912147  0.29338252  0.83973820     0.04000
N973        N  0.65782036  0.24502473  0.85077980     0.66500
H974        H  0.60795487  0.30654848  0.88937680     0.15400
H975        H  0.71563952  0.37717079  0.77897364     0.15100
N976        N  0.66774958  0.43904129  0.82274334     0.74200
O977        O  0.68792967  0.23027905  0.87843823    -0.39300
O978        O  0.61829309  0.22531175  0.85050087    -0.39200
O979        O  0.69868882  0.46047277  0.84490879    -0.39900
O980        O  0.65308966  0.45624880  0.78638361    -0.40000
C981        C  0.71698769  0.36122571  0.67845893    -0.12200
C982        C  0.68997950  0.33025621  0.70435339     0.04800
C983        C  0.64066970  0.33372370  0.70195609    -0.07500
C984        C  0.61992456  0.36426941  0.67152703    -0.08300
C985        C  0.64668064  0.39124294  0.64234063    -0.02800
C986        C  0.69570125  0.39224947  0.64802178     0.04000
N987        N  0.72433291  0.42308639  0.62238542     0.66500
H988        H  0.75488273  0.36017842  0.68077225     0.15400
H989        H  0.58202881  0.36418566  0.66852445     0.15100
N990        N  0.61028100  0.30267313  0.72498837     0.74200
O991        O  0.73480570  0.46243731  0.63834472    -0.39300
O992        O  0.74738469  0.40740126  0.58981503    -0.39200
O993        O  0.59321899  0.31600093  0.76168334    -0.39900
O994        O  0.58651932  0.27490950  0.70128594    -0.40000
C995        C  0.33041871  0.36238273  0.87566359    -0.12200
C996        C  0.37887302  0.35676588  0.87264167     0.04800
C997        C  0.39761702  0.32820495  0.83890810    -0.07500
C998        C  0.36724057  0.30720207  0.80808236    -0.08300
C999        C  0.31855784  0.31448896  0.81034356    -0.02800
C1000       C  0.30020530  0.34154303  0.84545173     0.04000
N1001       N  0.25135620  0.35037191  0.85067584     0.66500
H1002       H  0.31526850  0.38335730  0.90204658     0.15400
H1003       H  0.38174286  0.28480731  0.78250119     0.15100
N1004       N  0.44693988  0.32137370  0.83441966     0.74200
O1005       O  0.22891250  0.32457686  0.87729156    -0.39300
O1006       O  0.23733786  0.39172536  0.84530712    -0.39200
O1007       O  0.46504962  0.28411011  0.84888216    -0.39900
O1008       O  0.46918116  0.34565218  0.80633815    -0.40000
C1009       C  0.37195454  0.38812671  0.68251806    -0.12200
C1010       C  0.39993738  0.36236781  0.65364431     0.04800
C1011       C  0.39855198  0.31336562  0.65584928    -0.07500
C1012       C  0.36498998  0.29151903  0.68278470    -0.08300
C1013       C  0.33367013  0.31757686  0.70879949    -0.02800
C1014       C  0.33882271  0.36667121  0.70973817     0.04000
N1015       N  0.30749375  0.39658118  0.73290228     0.66500
H1016       H  0.37339472  0.42592232  0.68167880     0.15400
H1017       H  0.36260111  0.25396533  0.68226155     0.15100
N1018       N  0.42913060  0.28531161  0.62954832     0.74200
O1019       O  0.28284252  0.42376301  0.70924613    -0.39300
O1020       O  0.31892368  0.40973511  0.77172659    -0.39200
O1021       O  0.46597512  0.26925051  0.64729232    -0.39900
O1022       O  0.41430849  0.26796345  0.59337316    -0.40000
loop_ 
_geom_bond_atom_site_label_1 
_geom_bond_atom_site_label_2 
_geom_bond_distance 
_geom_bond_site_symmetry_2 
_ccdc_geom_bond_type 
N1            N2   1.324       .  A
N1            N7   1.315       .  A
N1         Mn541   2.197   1_554  S
N2            C9   1.354       .  A
N3            N5   1.310       .  A
N3            N4   1.311       .  A
N3         Mn530   2.172       .  S
N4           C10   1.351       .  A
N5            N6   1.314       .  A
N5          Mn30   2.137       .  S
N6           C10   1.346       .  A
N7            N8   1.313       .  A
N7          Mn19   2.191       .  S
N8            C9   1.351       .  A
C9          C474   1.474       .  S
C10         C457   1.451       .  S
N11          N17   1.314       .  A
N11          N12   1.311       .  A
N11        Mn552   2.175       .  S
N12          C20   1.349       .  A
N13          N14   1.323       .  A
N13          N15   1.315       .  A
N13         Mn19   2.192       .  S
N14          C21   1.353       .  A
N15          N16   1.314       .  A
N15         Mn41   2.192       .  S
N16          C21   1.351       .  A
N17          N18   1.322       .  A
N17        Mn530   2.185       .  S
N18          C20   1.352       .  A
Mn19        N514   2.177   1_554  S
Mn19        N528   2.183   1_554  S
Mn19        Cl43   2.524   1_554  S
C20         C485   1.461       .  S
C21         C499   1.471       .  S
N22          N23   1.319       .  A
N22          N28   1.311       .  A
N22         Mn30   2.186       .  S
N23          C31   1.353       .  A
N24          N26   1.311       .  A
N24          N25   1.311       .  A
N24        Mn553   2.158   1_554  S
N25          C32   1.347       .  A
N26          N27   1.313       .  A
N26        Mn541   2.144   1_554  S
N27          C32   1.346       .  A
N28          N29   1.310       .  A
N28         Mn42   2.149       .  S
N29          C31   1.346       .  A
Mn30        N512   2.198       .  S
Mn30        N537   2.143       .  S
Mn30       Cl554   2.545       .  S
C31         C432   1.453       .  S
C32         C446   1.442       .  S
N33          N34   1.315       .  A
N33          N39   1.313       .  A
N33         Mn41   2.191       .  S
N34          C44   1.355       .  A
N35          N36   1.311       .  A
N35          N37   1.312       .  A
N35         Mn42   2.159       .  S
N36          C45   1.346       .  A
N37          N38   1.323       .  A
N37        Mn552   2.197       .  S
N38          C45   1.355       .  A
N39          N40   1.314       .  A
N39        Mn553   2.151   1_554  S
N40          C44   1.344       .  A
Mn41        N522   2.177   1_554  S
Mn41        N548   2.194   1_554  S
Mn41        Cl43   2.529   1_554  S
Mn42        N535   2.159       .  S
Mn42        N550   2.146       .  S
Mn42       Cl554   2.511       .  S
Cl43       Mn541   2.547       .  S
Cl43       Mn553   2.508       .  S
C44         C418   1.458       .  S
C45         C404   1.462       .  S
N46          N47   1.329       .  A
N46          N52   1.320       .  A
N46         Mn75   2.270       .  S
N47          C54   1.364       .  A
N48          N50   1.319       .  A
N48          N49   1.323       .  A
N48         Mn64   2.208       .  S
N49          C55   1.352       .  A
N50          N51   1.328       .  A
N50         Mn75   2.250   1_545  S
N51          C55   1.362       .  A
N52          N53   1.328       .  A
N52         Mn64   2.228   1_565  S
N53          C54   1.356       .  A
C54         C387   1.518       .  S
C55         C317   1.507       .  S
N56          N62   1.318       .  A
N56          N57   1.318       .  A
N56         Mn86   2.180   1_554  S
N57          C65   1.346       .  A
N58          N59   1.315       .  A
N58          N60   1.315       .  A
N58         Mn64   2.201   1_565  S
N59          C66   1.353       .  A
N60          N61   1.326       .  A
N60         Mn86   2.199   1_564  S
N61          C66   1.353       .  A
N62          N63   1.321       .  A
N62         Mn64   2.220       .  S
N63          C65   1.354       .  A
Mn64        Cl88   2.558       .  S
C65         C306   1.462       .  S
C66         C345   1.488       .  S
N67          N68   1.328       .  A
N67          N73   1.324       .  A
N67        Mn586   2.252   1_545  S
N68          C76   1.357       .  A
N69          N71   1.324       .  A
N69          N70   1.324       .  A
N69         Mn87   2.223       .  S
N70          C77   1.351       .  A
N71          N72   1.325       .  A
N71        Mn586   2.238       .  S
N72          C77   1.355       .  A
N73          N74   1.327       .  A
N73         Mn87   2.247   1_545  S
N74          C76   1.356       .  A
Mn75        N578   2.259   1_564  S
Mn75        N582   2.236   1_554  S
Mn75        Cl88   2.571   1_565  S
C76         C331   1.502       .  S
C77         C373   1.485       .  S
N78          N79   1.320       .  A
N78          N84   1.320       .  A
N78        Mn597   2.183   1_565  S
N79          C89   1.346       .  A
N80          N81   1.322       .  A
N80          N82   1.318       .  A
N80         Mn87   2.222   1_545  S
N81          C90   1.357       .  A
N82          N83   1.326       .  A
N82        Mn597   2.203       .  S
N83          C90   1.352       .  A
N84          N85   1.328       .  A
N84         Mn87   2.263       .  S
N85          C89   1.362       .  A
Mn86        N589   2.174   1_545  S
Mn86        N593   2.208       .  S
Mn86        Cl88   2.562   1_556  S
Mn87       Cl599   2.563   1_565  S
Cl88       Mn598   2.568   1_554  S
C89         C362   1.490       .  S
C90         C289   1.498       .  S
N91          N92   1.332       .  A
N91          N97   1.322       .  A
N91        Mn120   2.254       .  S
N92          C99   1.361       .  A
N93          N95   1.319       .  A
N93          N94   1.325       .  A
N93        Mn109   2.231   1_455  S
N94         C100   1.356       .  A
N95          N96   1.322       .  A
N95        Mn120   2.208   1_455  S
N96         C100   1.350       .  A
N97          N98   1.330       .  A
N97        Mn109   2.270       .  S
N98          C99   1.362       .  A
C99         C275   1.529       .  S
C100        C177   1.481       .  S
N101        N107   1.321       .  A
N101        N102   1.326       .  A
N101       Mn131   2.229   1_454  S
N102        C110   1.354       .  A
N103        N104   1.324       .  A
N103        N105   1.321       .  A
N103       Mn109   2.233       .  S
N104        C111   1.356       .  A
N105        N106   1.323       .  A
N105       Mn131   2.215   1_554  S
N106        C111   1.352       .  A
N107        N108   1.327       .  A
N107       Mn109   2.254   1_455  S
N108        C110   1.358       .  A
Mn109      Cl133   2.569   1_554  S
C110        C219   1.496       .  S
C111        C236   1.492       .  S
N112        N113   1.328       .  A
N112        N118   1.320       .  A
N112       Mn631   2.228   1_455  S
N113        C121   1.357       .  A
N114        N116   1.321       .  A
N114        N115   1.323       .  A
N114       Mn132   2.218       .  S
N115        C122   1.351       .  A
N116        N117   1.324       .  A
N116       Mn631   2.217       .  S
N117        C122   1.352       .  A
N118        N119   1.317       .  A
N118       Mn132   2.215   1_455  S
N119        C121   1.353       .  A
Mn120       N623   2.219   1_654  S
Mn120       N627   2.224   1_554  S
Mn120      Cl133   2.577   1_554  S
C121        C191   1.496       .  S
C122        C261   1.477       .  S
N123        N124   1.324       .  A
N123        N129   1.319       .  A
N123       Mn642   2.233       .  S
N124        C134   1.357       .  A
N125        N126   1.325       .  A
N125        N127   1.317       .  A
N125       Mn132   2.232   1_455  S
N126        C135   1.359       .  A
N127        N128   1.326       .  A
N127       Mn642   2.215   1_455  S
N128        C135   1.355       .  A
N129        N130   1.328       .  A
N129       Mn132   2.231       .  S
N130        C134   1.358       .  A
Mn131       N634   2.234       .  S
Mn131       N638   2.218   1_655  S
Mn131      Cl133   2.570       .  S
Mn132      Cl644   2.564       .  S
Cl133      Mn643   2.562       .  S
C134        C250   1.507       .  S
C135        C208   1.507       .  S
C136        H137   1.111       .  S
C136        C142   1.547       .  S
C136        C141   1.543       .  S
C136        C140   1.540       .  S
C138        H139   1.105       .  S
C138        C144   1.558       .  S
C138        C143   1.538       .  S
C138        C145   1.562       .  S
C140        C143   1.376       .  D
C140        C502   1.489       .  S
C141        C144   1.390       .  D
C141        C222   1.499       .  S
C142        C145   1.389       .  D
C142        C320   1.516       .  S
C143        C488   1.484       .  S
C144        C205   1.532       .  S
C145        C334   1.522       .  S
C146        H147   1.099       .  S
C146        C152   1.551       .  S
C146        C151   1.539       .  S
C146        C150   1.533       .  S
C148        H149   1.105       .  S
C148        C154   1.554       .  S
C148        C153   1.523       .  S
C148        C155   1.561       .  S
C150        C153   1.372       .  D
C150        C471   1.490       .  S
C151        C154   1.380       .  D
C151        C303   1.492       .  S
C152        C155   1.396       .  D
C152        C233   1.541       .  S
C153        C460   1.464       .  S
C154        C292   1.519       .  S
C155        C247   1.510       .  S
C156        H157   1.110       .  S
C156        C162   1.554       .  S
C156        C161   1.547       .  S
C156        C160   1.538       .  S
C158        H159   1.095       .  S
C158        C164   1.549       .  S
C158        C163   1.528       .  S
C158        C165   1.544       .  S
C160        C163   1.365       .  D
C160        C415   1.472       .  S
C161        C164   1.397       .  D
C161        C390   1.519       .  S
C162        C165   1.385       .  D
C162        C180   1.513       .  S
C163        C401   1.469       .  S
C164        C376   1.531       .  S
C165        C194   1.510       .  S
C166        H167   1.111       .  S
C166        C172   1.556       .  S
C166        C171   1.559       .  S
C166        C170   1.540       .  S
C168        H169   1.094       .  S
C168        C174   1.551       .  S
C168        C173   1.545       .  S
C168        C175   1.554       .  S
C170        C173   1.372       .  D
C170        C443   1.499       .  S
C171        C174   1.388       .  D
C171        C278   1.539       .  S
C172        C175   1.393       .  D
C172        C348   1.502       .  S
C173        C429   1.473       .  S
C174        C264   1.514       .  S
C175        C359   1.541       .  S
C176        C177   1.405       .  A
C176        C181   1.413       .  A
C176        H183   1.084       .  S
C177        C178   1.402       .  A
C178        C179   1.398       .  A
C178        N185   1.428       .  S
C179        C180   1.413       .  A
C179        H184   1.080       .  S
C180        C181   1.421       .  A
C181        N182   1.429       .  S
N182        O186   1.262       .  A
N182        O187   1.262       .  A
N185        O189   1.262       .  A
N185        O188   1.262       .  A
C190        C191   1.397       .  A
C190        C195   1.397       .  A
C190        H197   1.084       .  S
C191        C192   1.414       .  A
C192        C193   1.411       .  A
C192        N199   1.427       .  S
C193        C194   1.410       .  A
C193        H198   1.084       .  S
C194        C195   1.421       .  A
C195        N196   1.423       .  S
N196        O200   1.260       .  A
N196        O201   1.261       .  A
N199        O203   1.261       .  A
N199        O202   1.262       .  A
C204        C205   1.413       .  A
C204        C209   1.419       .  A
C204        H211   1.084       .  S
C205        C206   1.427       .  A
C206        C207   1.405       .  A
C206        N213   1.418       .  S
C207        C208   1.393       .  A
C207        H212   1.084       .  S
C208        C209   1.416       .  A
C209        N210   1.427       .  S
N210        O214   1.262       .  A
N210        O215   1.262       .  A
N213        O217   1.257       .  A
N213        O216   1.262       .  A
C218        C219   1.412       .  A
C218        C223   1.415       .  A
C218        H225   1.083       .  S
C219        C220   1.411       .  A
C220        C221   1.404       .  A
C220        N227   1.428       .  S
C221        C222   1.406       .  A
C221        H226   1.082       .  S
C222        C223   1.407       .  A
C223        N224   1.429       .  S
N224        O228   1.261       .  A
N224        O229   1.262       .  A
N227        O231   1.262       .  A
N227        O230   1.262       .  A
C232        C233   1.415       .  A
C232        C237   1.401       .  A
C232        H239   1.079       .  S
C233        C234   1.423       .  A
C234        C235   1.414       .  A
C234        N241   1.433       .  S
C235        C236   1.405       .  A
C235        H240   1.084       .  S
C236        C237   1.407       .  A
C237        N238   1.429       .  S
N238        O242   1.262       .  A
N238        O243   1.261       .  A
N241        O245   1.263       .  A
N241        O244   1.262       .  A
C246        C247   1.410       .  A
C246        C251   1.411       .  A
C246        H253   1.083       .  S
C247        C248   1.412       .  A
C248        C249   1.408       .  A
C248        N255   1.428       .  S
C249        C250   1.409       .  A
C249        H254   1.083       .  S
C250        C251   1.418       .  A
C251        N252   1.428       .  S
N252        O256   1.262       .  A
N252        O257   1.262       .  A
N255        O259   1.262       .  A
N255        O258   1.262       .  A
C260        C261   1.389       .  A
C260        C265   1.400       .  A
C260        H267   1.085       .  S
C261        C262   1.409       .  A
C262        C263   1.409       .  A
C262        N269   1.428       .  S
C263        C264   1.410       .  A
C263        H268   1.083       .  S
C264        C265   1.427       .  A
C265        N266   1.425       .  S
N266        O270   1.260       .  A
N266        O271   1.262       .  A
N269        O273   1.262       .  A
N269        O272   1.262       .  A
C274        C275   1.406       .  A
C274        C279   1.417       .  A
C274        H281   1.083       .  S
C275        C276   1.422       .  A
C276        C277   1.422       .  A
C276        N283   1.428       .  S
C277        C278   1.410       .  A
C277        H282   1.084       .  S
C278        C279   1.427       .  A
C279        N280   1.429       .  S
N280        O284   1.258       .  A
N280        O285   1.262       .  A
N283        O287   1.262       .  A
N283        O286   1.262       .  A
C288        C289   1.394       .  A
C288        C293   1.400       .  A
C288        H295   1.084       .  S
C289        C290   1.416       .  A
C290        C291   1.412       .  A
C290        N297   1.426       .  S
C291        C292   1.408       .  A
C291        H296   1.084       .  S
C292        C293   1.429       .  A
C293        N294   1.422       .  S
N294        O298   1.261       .  A
N294        O299   1.258       .  A
N297        O301   1.262       .  A
N297        O300   1.262       .  A
C302        C303   1.412       .  A
C302        C307   1.392       .  A
C302        H309   1.081       .  S
C303        C304   1.413       .  A
C304        C305   1.404       .  A
C304        N311   1.429       .  S
C305        C306   1.403       .  A
C305        H310   1.084       .  S
C306        C307   1.399       .  A
C307        N308   1.429       .  S
N308        O312   1.262       .  A
N308        O313   1.262       .  A
N311        O315   1.262       .  A
N311        O314   1.262       .  A
C316        C317   1.406       .  A
C316        C321   1.412       .  A
C316        H323   1.084       .  S
C317        C318   1.418       .  A
C318        C319   1.405       .  A
C318        N325   1.429       .  S
C319        C320   1.405       .  A
C319        H324   1.075       .  S
C320        C321   1.417       .  A
C321        N322   1.428       .  S
N322        O326   1.262       .  A
N322        O327   1.262       .  A
N325        O329   1.262       .  A
N325        O328   1.262       .  A
C330        C331   1.411       .  A
C330        C335   1.420       .  A
C330        H337   1.090       .  S
C331        C332   1.407       .  A
C332        C333   1.398       .  A
C332        N339   1.428       .  S
C333        C334   1.401       .  A
C333        H338   1.113       .  S
C334        C335   1.416       .  A
C335        N336   1.427       .  S
N336        O340   1.262       .  A
N336        O341   1.262       .  A
N339        O343   1.262       .  A
N339        O342   1.262       .  A
C344        C345   1.394       .  A
C344        C349   1.389       .  A
C344        H351   1.084       .  S
C345        C346   1.416       .  A
C346        C347   1.411       .  A
C346        N353   1.426       .  S
C347        C348   1.406       .  A
C347        H352   1.084       .  S
C348        C349   1.417       .  A
C349        N350   1.419       .  S
N350        O354   1.250       .  A
N350        O355   1.262       .  A
N353        O357   1.261       .  A
N353        O356   1.262       .  A
C358        C359   1.414       .  A
C358        C363   1.405       .  A
C358        H365   1.080       .  S
C359        C360   1.422       .  A
C360        C361   1.416       .  A
C360        N367   1.435       .  S
C361        C362   1.403       .  A
C361        H366   1.084       .  S
C362        C363   1.410       .  A
C363        N364   1.431       .  S
N364        O368   1.262       .  A
N364        O369   1.261       .  A
N367        O371   1.263       .  A
N367        O370   1.263       .  A
C372        C373   1.389       .  A
C372        C377   1.404       .  A
C372        H379   1.085       .  S
C373        C374   1.409       .  A
C374        C375   1.408       .  A
C374        N381   1.427       .  S
C375        C376   1.411       .  A
C375        H380   1.082       .  S
C376        C377   1.440       .  A
C377        N378   1.429       .  S
N378        O382   1.263       .  A
N378        O383   1.261       .  A
N381        O385   1.262       .  A
N381        O384   1.262       .  A
C386        C387   1.408       .  A
C386        C391   1.413       .  A
C386        H393   1.083       .  S
C387        C388   1.423       .  A
C388        C389   1.414       .  A
C388        N395   1.428       .  S
C389        C390   1.407       .  A
C389        H394   1.083       .  S
C390        C391   1.416       .  A
C391        N392   1.428       .  S
N392        O396   1.262       .  A
N392        O397   1.262       .  A
N395        O399   1.262       .  A
N395        O398   1.262       .  A
C400        C401   1.401       .  A
C400        C405   1.389       .  A
C400        H407   1.081       .  S
C401        C402   1.411       .  A
C402        C403   1.393       .  A
C402        N409   1.432       .  S
C403        C404   1.404       .  A
C403        H408   1.085       .  S
C404        C405   1.405       .  A
C405        N406   1.428       .  S
N406        O410   1.262       .  A
N406        O411   1.262       .  A
N409        O413   1.262       .  A
N409        O412   1.262       .  A
C414        C415   1.399       .  A
C414        C419   1.391       .  A
C414        H421   1.083       .  S
C415        C416   1.414       .  A
C416        C417   1.385       .  A
C416        N423   1.422       .  S
C417        C418   1.391       .  A
C417        H422   1.085       .  S
C418        C419   1.410       .  A
C419        N420   1.428       .  S
N420        O424   1.262       .  A
N420        O425   1.262       .  A
N423        O427   1.262       .  A
N423        O426   1.262       .  A
C428        C429   1.395       .  A
C428        C433   1.385       .  A
C428        H435   1.086       .  S
C429        C430   1.414       .  A
C430        C431   1.387       .  A
C430        N437   1.422       .  S
C431        C432   1.393       .  A
C431        H436   1.088       .  S
C432        C433   1.397       .  A
C433        N434   1.417       .  S
N434        O438   1.262       .  A
N434        O439   1.259       .  A
N437        O441   1.262       .  A
N437        O440   1.256       .  A
C442        C443   1.412       .  A
C442        C447   1.388       .  A
C442        H449   1.078       .  S
C443        C444   1.434       .  A
C444        C445   1.386       .  A
C444        N451   1.429       .  S
C445        C446   1.385       .  A
C445        H450   1.085       .  S
C446        C447   1.396       .  A
C447        N448   1.430       .  S
N448        O452   1.262       .  A
N448        O453   1.262       .  A
N451        O455   1.261       .  A
N451        O454   1.263       .  A
C456        C457   1.390       .  A
C456        C461   1.382       .  A
C456        H463   1.084       .  S
C457        C458   1.403       .  A
C458        C459   1.385       .  A
C458        N465   1.417       .  S
C459        C460   1.395       .  A
C459        H464   1.084       .  S
C460        C461   1.415       .  A
C461        N462   1.425       .  S
N462        O466   1.261       .  A
N462        O467   1.262       .  A
N465        O469   1.261       .  A
N465        O468   1.262       .  A
C470        C471   1.407       .  A
C470        C475   1.403       .  A
C470        H477   1.084       .  S
C471        C472   1.411       .  A
C472        C473   1.391       .  A
C472        N479   1.421       .  S
C473        C474   1.395       .  A
C473        H478   1.085       .  S
C474        C475   1.408       .  A
C475        N476   1.427       .  S
N476        O480   1.262       .  A
N476        O481   1.261       .  A
N479        O483   1.263       .  A
N479        O482   1.262       .  A
C484        C485   1.395       .  A
C484        C489   1.385       .  A
C484        H491   1.084       .  S
C485        C486   1.405       .  A
C486        C487   1.397       .  A
C486        N493   1.428       .  S
C487        C488   1.410       .  A
C487        H492   1.080       .  S
C488        C489   1.414       .  A
C489        N490   1.427       .  S
N490        O494   1.262       .  A
N490        O495   1.261       .  A
N493        O497   1.262       .  A
N493        O496   1.262       .  A
C498        C499   1.394       .  A
C498        C503   1.392       .  A
C498        H505   1.085       .  S
C499        C500   1.408       .  A
C500        C501   1.400       .  A
C500        N507   1.427       .  S
C501        C502   1.405       .  A
C501        H506   1.081       .  S
C502        C503   1.415       .  A
C503        N504   1.424       .  S
N504        O508   1.263       .  A
N504        O509   1.262       .  A
N507        O511   1.262       .  A
N507        O510   1.262       .  A
N512        N513   1.325       .  A
N512        N518   1.315       .  A
N513        C520   1.354       .  A
N514        N516   1.310       .  A
N514        N515   1.311       .  A
N515        C521   1.352       .  A
N516        N517   1.314       .  A
N516       Mn541   2.134       .  S
N517        C521   1.345       .  A
N518        N519   1.314       .  A
N518       Mn530   2.195       .  S
N519        C520   1.352       .  A
C520        C985   1.476       .  S
C521        C968   1.451       .  S
N522        N528   1.314       .  A
N522        N523   1.310       .  A
N523        C531   1.349       .  A
N524        N525   1.322       .  A
N524        N526   1.315       .  A
N524       Mn530   2.188       .  S
N525        C532   1.351       .  A
N526        N527   1.315       .  A
N526       Mn552   2.196       .  S
N527        C532   1.353       .  A
N528        N529   1.322       .  A
N529        C531   1.352       .  A
Mn530      Cl554   2.522       .  S
C531        C996   1.463       .  S
C532       C1010   1.470       .  S
N533        N534   1.320       .  A
N533        N539   1.311       .  A
N533       Mn541   2.186       .  S
N534        C542   1.354       .  A
N535        N537   1.311       .  A
N535        N536   1.311       .  A
N536        C543   1.348       .  A
N537        N538   1.312       .  A
N538        C543   1.345       .  A
N539        N540   1.310       .  A
N539       Mn553   2.154       .  S
N540        C542   1.346       .  A
C542        C943   1.454       .  S
C543        C957   1.442       .  S
N544        N545   1.315       .  A
N544        N550   1.312       .  A
N544       Mn552   2.190       .  S
N545        C555   1.354       .  A
N546        N547   1.310       .  A
N546        N548   1.311       .  A
N546       Mn553   2.157       .  S
N547        C556   1.346       .  A
N548        N549   1.323       .  A
N549        C556   1.355       .  A
N550        N551   1.313       .  A
N551        C555   1.343       .  A
Mn552      Cl554   2.530       .  S
C555        C929   1.454       .  S
C556        C915   1.461       .  S
N557        N558   1.329       .  A
N557        N563   1.321       .  A
N557       Mn586   2.268       .  S
N558        C565   1.363       .  A
N559        N561   1.318       .  A
N559        N560   1.322       .  A
N559       Mn575   2.206       .  S
N560        C566   1.352       .  A
N561        N562   1.328       .  A
N561       Mn586   2.251   1_545  S
N562        C566   1.362       .  A
N563        N564   1.328       .  A
N563       Mn575   2.231   1_565  S
N564        C565   1.356       .  A
C565        C898   1.517       .  S
C566        C828   1.506       .  S
N567        N573   1.318       .  A
N567        N568   1.318       .  A
N567       Mn597   2.184       .  S
N568        C576   1.347       .  A
N569        N570   1.317       .  A
N569        N571   1.315       .  A
N569       Mn575   2.202   1_565  S
N570        C577   1.354       .  A
N571        N572   1.324       .  A
N571       Mn597   2.195   1_565  S
N572        C577   1.352       .  A
N573        N574   1.323       .  A
N573       Mn575   2.225       .  S
N574        C576   1.355       .  A
Mn575      Cl599   2.558       .  S
C576        C817   1.467       .  S
C577        C856   1.486       .  S
N578        N579   1.329       .  A
N578        N584   1.325       .  A
N579        C587   1.358       .  A
N580        N582   1.324       .  A
N580        N581   1.324       .  A
N580       Mn598   2.219   1_565  S
N581        C588   1.351       .  A
N582        N583   1.324       .  A
N583        C588   1.354       .  A
N584        N585   1.328       .  A
N584       Mn598   2.249       .  S
N585        C587   1.356       .  A
Mn586      Cl599   2.573   1_565  S
C587        C842   1.504       .  S
C588        C884   1.483       .  S
N589        N590   1.319       .  A
N589        N595   1.320       .  A
N590        C600   1.344       .  A
N591        N592   1.322       .  A
N591        N593   1.319       .  A
N591       Mn598   2.227       .  S
N592        C601   1.357       .  A
N593        N594   1.326       .  A
N594        C601   1.352       .  A
N595        N596   1.328       .  A
N595       Mn598   2.263   1_565  S
N596        C600   1.362       .  A
Mn597      Cl599   2.561       .  S
C600        C873   1.486       .  S
C601        C800   1.501       .  S
N602        N603   1.331       .  A
N602        N608   1.323       .  A
N602       Mn631   2.247       .  S
N603        C610   1.359       .  A
N604        N606   1.319       .  A
N604        N605   1.325       .  A
N604       Mn620   2.230   1_455  S
N605        C611   1.355       .  A
N606        N607   1.323       .  A
N606       Mn631   2.208   1_455  S
N607        C611   1.351       .  A
N608        N609   1.329       .  A
N608       Mn620   2.269       .  S
N609        C610   1.363       .  A
C610        C786   1.525       .  S
C611        C688   1.481       .  S
N612        N618   1.322       .  A
N612        N613   1.325       .  A
N612       Mn642   2.225   1_455  S
N613        C621   1.353       .  A
N614        N615   1.326       .  A
N614        N616   1.322       .  A
N614       Mn620   2.237       .  S
N615        C622   1.357       .  A
N616        N617   1.322       .  A
N616       Mn642   2.209       .  S
N617        C622   1.351       .  A
N618        N619   1.327       .  A
N618       Mn620   2.249   1_455  S
N619        C621   1.357       .  A
Mn620      Cl644   2.568       .  S
C621        C730   1.491       .  S
C622        C747   1.492       .  S
N623        N624   1.327       .  A
N623        N629   1.320       .  A
N624        C632   1.355       .  A
N625        N627   1.322       .  A
N625        N626   1.324       .  A
N625       Mn643   2.217       .  S
N626        C633   1.351       .  A
N627        N628   1.324       .  A
N628        C633   1.353       .  A
N629        N630   1.317       .  A
N629       Mn643   2.214   1_455  S
N630        C632   1.354       .  A
Mn631      Cl644   2.575       .  S
C632        C702   1.493       .  S
C633        C772   1.480       .  S
N634        N635   1.323       .  A
N634        N640   1.320       .  A
N635        C645   1.357       .  A
N636        N637   1.324       .  A
N636        N638   1.318       .  A
N636       Mn643   2.230   1_455  S
N637        C646   1.357       .  A
N638        N639   1.326       .  A
N639        C646   1.355       .  A
N640        N641   1.329       .  A
N640       Mn643   2.236       .  S
N641        C645   1.359       .  A
Mn642      Cl644   2.567       .  S
C645        C761   1.507       .  S
C646        C719   1.506       .  S
C647        H648   1.112       .  S
C647        C653   1.549       .  S
C647        C652   1.542       .  S
C647        C651   1.540       .  S
C649        H650   1.106       .  S
C649        C655   1.555       .  S
C649        C654   1.536       .  S
C649        C656   1.566       .  S
C651        C654   1.372       .  D
C651       C1013   1.491       .  S
C652        C655   1.387       .  D
C652        C733   1.495       .  S
C653        C656   1.392       .  D
C653        C831   1.506       .  S
C654        C999   1.474       .  S
C655        C716   1.532       .  S
C656        C845   1.538       .  S
C657        H658   1.101       .  S
C657        C663   1.556       .  S
C657        C662   1.540       .  S
C657        C661   1.535       .  S
C659        H660   1.104       .  S
C659        C665   1.555       .  S
C659        C664   1.525       .  S
C659        C666   1.559       .  S
C661        C664   1.374       .  D
C661        C982   1.493       .  S
C662        C665   1.381       .  D
C662        C814   1.495       .  S
C663        C666   1.393       .  D
C663        C744   1.539       .  S
C664        C971   1.466       .  S
C665        C803   1.521       .  S
C666        C758   1.510       .  S
C667        H668   1.110       .  S
C667        C673   1.549       .  S
C667        C672   1.545       .  S
C667        C671   1.539       .  S
C669        H670   1.094       .  S
C669        C675   1.551       .  S
C669        C674   1.527       .  S
C669        C676   1.544       .  S
C671        C674   1.366       .  D
C671        C926   1.473       .  S
C672        C675   1.400       .  D
C672        C901   1.519       .  S
C673        C676   1.383       .  D
C673        C691   1.511       .  S
C674        C912   1.468       .  S
C675        C887   1.533       .  S
C676        C705   1.508       .  S
C677        H678   1.111       .  S
C677        C683   1.559       .  S
C677        C682   1.562       .  S
C677        C681   1.536       .  S
C679        H680   1.089       .  S
C679        C685   1.552       .  S
C679        C684   1.548       .  S
C679        C686   1.554       .  S
C681        C684   1.371       .  D
C681        C954   1.496       .  S
C682        C685   1.389       .  D
C682        C789   1.540       .  S
C683        C686   1.391       .  D
C683        C859   1.502       .  S
C684        C940   1.476       .  S
C685        C775   1.520       .  S
C686        C870   1.541       .  S
C687        C688   1.406       .  A
C687        C692   1.413       .  A
C687        H694   1.084       .  S
C688        C689   1.401       .  A
C689        C690   1.397       .  A
C689        N696   1.428       .  S
C690        C691   1.412       .  A
C690        H695   1.080       .  S
C691        C692   1.420       .  A
C692        N693   1.430       .  S
N693        O697   1.262       .  A
N693        O698   1.262       .  A
N696        O700   1.262       .  A
N696        O699   1.262       .  A
C701        C702   1.395       .  A
C701        C706   1.394       .  A
C701        H708   1.084       .  S
C702        C703   1.414       .  A
C703        C704   1.410       .  A
C703        N710   1.427       .  S
C704        C705   1.409       .  A
C704        H709   1.084       .  S
C705        C706   1.420       .  A
C706        N707   1.421       .  S
N707        O711   1.260       .  A
N707        O712   1.261       .  A
N710        O714   1.261       .  A
N710        O713   1.262       .  A
C715        C716   1.414       .  A
C715        C720   1.419       .  A
C715        H722   1.083       .  S
C716        C717   1.428       .  A
C717        C718   1.404       .  A
C717        N724   1.418       .  S
C718        C719   1.392       .  A
C718        H723   1.084       .  S
C719        C720   1.415       .  A
C720        N721   1.427       .  S
N721        O725   1.262       .  A
N721        O726   1.262       .  A
N724        O728   1.256       .  A
N724        O727   1.261       .  A
C729        C730   1.412       .  A
C729        C734   1.413       .  A
C729        H736   1.083       .  S
C730        C731   1.409       .  A
C731        C732   1.403       .  A
C731        N738   1.427       .  S
C732        C733   1.406       .  A
C732        H737   1.083       .  S
C733        C734   1.407       .  A
C734        N735   1.429       .  S
N735        O739   1.261       .  A
N735        O740   1.262       .  A
N738        O742   1.262       .  A
N738        O741   1.262       .  A
C743        C744   1.412       .  A
C743        C748   1.399       .  A
C743        H750   1.079       .  S
C744        C745   1.424       .  A
C745        C746   1.414       .  A
C745        N752   1.433       .  S
C746        C747   1.405       .  A
C746        H751   1.084       .  S
C747        C748   1.408       .  A
C748        N749   1.428       .  S
N749        O753   1.262       .  A
N749        O754   1.261       .  A
N752        O756   1.263       .  A
N752        O755   1.263       .  A
C757        C758   1.410       .  A
C757        C762   1.411       .  A
C757        H764   1.084       .  S
C758        C759   1.411       .  A
C759        C760   1.409       .  A
C759        N766   1.428       .  S
C760        C761   1.409       .  A
C760        H765   1.083       .  S
C761        C762   1.418       .  A
C762        N763   1.428       .  S
N763        O767   1.262       .  A
N763        O768   1.262       .  A
N766        O770   1.262       .  A
N766        O769   1.262       .  A
C771        C772   1.389       .  A
C771        C776   1.400       .  A
C771        H778   1.085       .  S
C772        C773   1.411       .  A
C773        C774   1.409       .  A
C773        N780   1.429       .  S
C774        C775   1.412       .  A
C774        H779   1.083       .  S
C775        C776   1.429       .  A
C776        N777   1.425       .  S
N777        O781   1.260       .  A
N777        O782   1.263       .  A
N780        O784   1.262       .  A
N780        O783   1.262       .  A
C785        C786   1.404       .  A
C785        C790   1.416       .  A
C785        H792   1.083       .  S
C786        C787   1.421       .  A
C787        C788   1.421       .  A
C787        N794   1.428       .  S
C788        C789   1.410       .  A
C788        H793   1.084       .  S
C789        C790   1.430       .  A
C790        N791   1.431       .  S
N791        O795   1.256       .  A
N791        O796   1.263       .  A
N794        O798   1.262       .  A
N794        O797   1.262       .  A
C799        C800   1.394       .  A
C799        C804   1.401       .  A
C799        H806   1.084       .  S
C800        C801   1.416       .  A
C801        C802   1.412       .  A
C801        N808   1.426       .  S
C802        C803   1.408       .  A
C802        H807   1.084       .  S
C803        C804   1.430       .  A
C804        N805   1.422       .  S
N805        O809   1.261       .  A
N805        O810   1.258       .  A
N808        O812   1.262       .  A
N808        O811   1.262       .  A
C813        C814   1.412       .  A
C813        C818   1.396       .  A
C813        H820   1.081       .  S
C814        C815   1.413       .  A
C815        C816   1.404       .  A
C815        N822   1.429       .  S
C816        C817   1.404       .  A
C816        H821   1.084       .  S
C817        C818   1.402       .  A
C818        N819   1.429       .  S
N819        O823   1.262       .  A
N819        O824   1.262       .  A
N822        O826   1.262       .  A
N822        O825   1.262       .  A
C827        C828   1.406       .  A
C827        C832   1.409       .  A
C827        H834   1.083       .  S
C828        C829   1.421       .  A
C829        C830   1.406       .  A
C829        N836   1.428       .  S
C830        C831   1.403       .  A
C830        H835   1.083       .  S
C831        C832   1.416       .  A
C832        N833   1.428       .  S
N833        O837   1.262       .  A
N833        O838   1.262       .  A
N836        O840   1.262       .  A
N836        O839   1.262       .  A
C841        C842   1.410       .  A
C841        C846   1.423       .  A
C841        H848   1.083       .  S
C842        C843   1.403       .  A
C843        C844   1.403       .  A
C843        N850   1.427       .  S
C844        C845   1.413       .  A
C844        H849   1.076       .  S
C845        C846   1.425       .  A
C846        N847   1.430       .  S
N847        O851   1.262       .  A
N847        O852   1.262       .  A
N850        O854   1.262       .  A
N850        O853   1.261       .  A
C855        C856   1.394       .  A
C855        C860   1.391       .  A
C855        H862   1.084       .  S
C856        C857   1.415       .  A
C857        C858   1.408       .  A
C857        N864   1.426       .  S
C858        C859   1.405       .  A
C858        H863   1.084       .  S
C859        C860   1.421       .  A
C860        N861   1.420       .  S
N861        O865   1.250       .  A
N861        O866   1.262       .  A
N864        O868   1.261       .  A
N864        O867   1.262       .  A
C869        C870   1.414       .  A
C869        C874   1.405       .  A
C869        H876   1.078       .  S
C870        C871   1.423       .  A
C871        C872   1.413       .  A
C871        N878   1.432       .  S
C872        C873   1.402       .  A
C872        H877   1.083       .  S
C873        C874   1.409       .  A
C874        N875   1.432       .  S
N875        O879   1.262       .  A
N875        O880   1.261       .  A
N878        O882   1.262       .  A
N878        O881   1.263       .  A
C883        C884   1.387       .  A
C883        C888   1.402       .  A
C883        H890   1.085       .  S
C884        C885   1.408       .  A
C885        C886   1.409       .  A
C885        N892   1.427       .  S
C886        C887   1.412       .  A
C886        H891   1.082       .  S
C887        C888   1.442       .  A
C888        N889   1.429       .  S
N889        O893   1.263       .  A
N889        O894   1.262       .  A
N892        O896   1.261       .  A
N892        O895   1.262       .  A
C897        C898   1.408       .  A
C897        C902   1.412       .  A
C897        H904   1.083       .  S
C898        C899   1.422       .  A
C899        C900   1.414       .  A
C899        N906   1.428       .  S
C900        C901   1.407       .  A
C900        H905   1.083       .  S
C901        C902   1.417       .  A
C902        N903   1.429       .  S
N903        O907   1.262       .  A
N903        O908   1.262       .  A
N906        O910   1.262       .  A
N906        O909   1.262       .  A
C911        C912   1.401       .  A
C911        C916   1.391       .  A
C911        H918   1.082       .  S
C912        C913   1.411       .  A
C913        C914   1.391       .  A
C913        N920   1.432       .  S
C914        C915   1.403       .  A
C914        H919   1.085       .  S
C915        C916   1.406       .  A
C916        N917   1.428       .  S
N917        O921   1.262       .  A
N917        O922   1.262       .  A
N920        O924   1.262       .  A
N920        O923   1.262       .  A
C925        C926   1.399       .  A
C925        C930   1.389       .  A
C925        H932   1.082       .  S
C926        C927   1.416       .  A
C927        C928   1.385       .  A
C927        N934   1.421       .  S
C928        C929   1.389       .  A
C928        H933   1.085       .  S
C929        C930   1.409       .  A
C930        N931   1.428       .  S
N931        O935   1.262       .  A
N931        O936   1.262       .  A
N934        O938   1.262       .  A
N934        O937   1.262       .  A
C939        C940   1.399       .  A
C939        C944   1.387       .  A
C939        H946   1.073       .  S
C940        C941   1.412       .  A
C941        C942   1.386       .  A
C941        N948   1.422       .  S
C942        C943   1.394       .  A
C942        H947   1.084       .  S
C943        C944   1.398       .  A
C944        N945   1.418       .  S
N945        O949   1.261       .  A
N945        O950   1.261       .  A
N948        O952   1.263       .  A
N948        O951   1.255       .  A
C953        C954   1.412       .  A
C953        C958   1.390       .  A
C953        H960   1.078       .  S
C954        C955   1.431       .  A
C955        C956   1.384       .  A
C955        N962   1.427       .  S
C956        C957   1.384       .  A
C956        H961   1.086       .  S
C957        C958   1.397       .  A
C958        N959   1.430       .  S
N959        O963   1.262       .  A
N959        O964   1.262       .  A
N962        O966   1.261       .  A
N962        O965   1.263       .  A
C967        C968   1.389       .  A
C967        C972   1.381       .  A
C967        H974   1.084       .  S
C968        C969   1.403       .  A
C969        C970   1.387       .  A
C969        N976   1.418       .  S
C970        C971   1.397       .  A
C970        H975   1.084       .  S
C971        C972   1.416       .  A
C972        N973   1.425       .  S
N973        O977   1.261       .  A
N973        O978   1.262       .  A
N976        O980   1.261       .  A
N976        O979   1.262       .  A
C981        C982   1.408       .  A
C981        C986   1.406       .  A
C981        H988   1.084       .  S
C982        C983   1.413       .  A
C983        C984   1.391       .  A
C983        N990   1.421       .  S
C984        C985   1.394       .  A
C984        H989   1.085       .  S
C985        C986   1.409       .  A
C986        N987   1.427       .  S
N987        O991   1.262       .  A
N987        O992   1.261       .  A
N990        O994   1.262       .  A
N990        O993   1.262       .  A
C995        C996   1.396       .  A
C995       C1000   1.382       .  A
C995       H1002   1.084       .  S
C996        C997   1.408       .  A
C997        C998   1.399       .  A
C997       N1004   1.429       .  S
C998        C999   1.407       .  A
C998       H1003   1.083       .  S
C999       C1000   1.409       .  A
C1000      N1001   1.427       .  S
N1001      O1005   1.261       .  A
N1001      O1006   1.262       .  A
N1004      O1008   1.262       .  A
N1004      O1007   1.262       .  A
C1009      C1010   1.392       .  A
C1009      C1014   1.392       .  A
C1009      H1016   1.085       .  S
C1010      C1011   1.408       .  A
C1011      C1012   1.400       .  A
C1011      N1018   1.427       .  S
C1012      C1013   1.404       .  A
C1012      H1017   1.080       .  S
C1013      C1014   1.416       .  A
C1014      N1015   1.423       .  S
N1015      O1019   1.263       .  A
N1015      O1020   1.261       .  A
N1018      O1022   1.262       .  A
N1018      O1021   1.262       .  A
