geometry optimzed in LAMMPS
_audit_creation_date              2020-11-30 
_audit_creation_method            'lammps2cif' 
_symmetry_space_group_name_H-M    'P1' 
_symmetry_Int_Tables_number       1 
_symmetry_cell_setting            triclinic 
loop_ 
_symmetry_equiv_pos_as_xyz 
  x,y,z 
_cell_length_a                    38.68138363 
_cell_length_b                    38.998373250332634 
_cell_length_c                    38.81066640082546 
_cell_angle_alpha                 89.77018913150732 
_cell_angle_beta                  90.10623875498139 
_cell_angle_gamma                 90.03290266759693 
loop_ 
_atom_site_label 
_atom_site_type_symbol 
_atom_site_fract_x 
_atom_site_fract_y 
_atom_site_fract_z 
_atom_site_charge 
N1          N  0.56914275  0.46342321  0.03729738    -0.05400
N2          N  0.59375487  0.45937776  0.06060909    -0.57600
N3          N  0.54048070  0.43138304  0.46396894    -0.05100
N4          N  0.54523136  0.40725352  0.44074982    -0.59700
N5          N  0.56404851  0.45544848  0.46075974    -0.04700
N6          N  0.58519698  0.44843368  0.43521402    -0.57500
N7          N  0.54494485  0.44014230  0.04142773    -0.04400
N8          N  0.55226350  0.41996356  0.06763267    -0.60000
C9          C  0.58261575  0.43227401  0.07949384     0.96700
C10         C  0.57309942  0.41838271  0.42289054     0.96500
N11         N  0.43564571  0.45454638  0.46784504    -0.05600
N12         N  0.41220465  0.44718532  0.44445164    -0.58100
N13         N  0.46457399  0.43951136  0.04752968    -0.03800
N14         N  0.46086992  0.41972536  0.07492481    -0.59400
N15         N  0.43991066  0.46264047  0.04621227    -0.05700
N16         N  0.41888248  0.45909181  0.07265547    -0.58400
N17         N  0.45986851  0.43098792  0.46866748    -0.03400
N18         N  0.45345413  0.40692071  0.44588940    -0.59500
Mn19       Mn  0.50200985  0.43476053  0.00555535     1.18400
C20         C  0.42377283  0.41753777  0.43091353     0.98800
C21         C  0.43239399  0.43241461  0.09051988     0.99500
N22         N  0.56311662  0.53493964  0.45414750    -0.05700
N23         N  0.58420297  0.53941308  0.42783044    -0.62000
N24         N  0.54212621  0.56630226  0.02960934    -0.04500
N25         N  0.54741284  0.58932961  0.05381112    -0.62700
N26         N  0.56677767  0.54314150  0.02997024    -0.05200
N27         N  0.58941261  0.54986309  0.05441628    -0.62300
N28         N  0.53848446  0.55806317  0.45360172    -0.04100
N29         N  0.54208515  0.57870005  0.42703282    -0.62900
Mn30       Mn  0.56698474  0.49818134  0.49668566     1.10700
C31         C  0.57050622  0.56669372  0.41103055     1.00000
C32         C  0.57693840  0.57867121  0.06912770     1.00100
N33         N  0.43829850  0.54153191  0.03767926    -0.05200
N34         N  0.41744035  0.54856273  0.06339012    -0.60600
N35         N  0.45848846  0.55760071  0.45682193    -0.04500
N36         N  0.45274924  0.57697922  0.42954012    -0.57300
N37         N  0.43423442  0.53421295  0.46003510    -0.05800
N38         N  0.41118939  0.53738483  0.43502651    -0.60100
N39         N  0.46181357  0.56553337  0.03416477    -0.04800
N40         N  0.45740367  0.58970296  0.05730398    -0.57300
Mn41       Mn  0.43529965  0.49847316  0.00272502     1.20200
Mn42       Mn  0.50046648  0.56219022  0.49437019     1.10100
Cl43       Cl  0.50079506  0.49918482  0.99881094    -0.85300
C44         C  0.42982000  0.57853034  0.07549290     0.97000
C45         C  0.42325406  0.56409772  0.41610361     0.96800
N46         N  0.43434239  0.96097940  0.04230816    -0.05400
N47         N  0.40916339  0.93970883  0.05123168    -0.57600
N48         N  0.45863359  0.03953260  0.06417747    -0.05100
N49         N  0.44870971  0.05987583  0.08949359    -0.59700
N50         N  0.43509119  0.03922081  0.03962003    -0.04700
N51         N  0.40899968  0.05937674  0.04772378    -0.57500
N52         N  0.45834091  0.96156902  0.06642932    -0.04400
N53         N  0.44978135  0.94097298  0.09216288    -0.60000
C54         C  0.41918715  0.92719374  0.08234524     0.96700
C55         C  0.41782717  0.07239326  0.07872815     0.96500
N56         N  0.56585932  0.03809053  0.04027561    -0.05600
N57         N  0.59168739  0.05869712  0.04866057    -0.58100
N58         N  0.54129847  0.96106186  0.06680631    -0.03800
N59         N  0.54995537  0.94071820  0.09275505    -0.59400
N60         N  0.56497479  0.95978101  0.04249086    -0.05700
N61         N  0.58988652  0.93825548  0.05131446    -0.58400
N62         N  0.54168817  0.03895491  0.06411737    -0.03400
N63         N  0.55074350  0.06003176  0.08908319    -0.59500
Mn64       Mn  0.50001167  0.00035172  0.06584436     1.18400
C65         C  0.58183843  0.07244637  0.07908970     0.98800
C66         C  0.58007233  0.92627728  0.08257913     0.99500
N67         N  0.43561324  0.03627740  0.45761991    -0.05700
N68         N  0.41078979  0.05794071  0.44876080    -0.62000
N69         N  0.45946691  0.95713650  0.43662576    -0.04500
N70         N  0.44969473  0.93659122  0.41140345    -0.62700
N71         N  0.43549528  0.95817618  0.46065257    -0.05200
N72         N  0.40911176  0.93849640  0.45214629    -0.62300
N73         N  0.45943762  0.03518359  0.43341351    -0.04100
N74         N  0.45100156  0.05585362  0.40760768    -0.62900
Mn75       Mn  0.43445847  0.99939631  0.99975019     1.10700
C76         C  0.42077189  0.07025729  0.41762242     1.00000
C77         C  0.41831930  0.92493613  0.42153819     1.00100
N78         N  0.56687523  0.95864102  0.46101620    -0.05200
N79         N  0.59306169  0.93851551  0.45281056    -0.60600
N80         N  0.54258097  0.03492443  0.43345343    -0.04500
N81         N  0.55195780  0.05400699  0.40681335    -0.57300
N82         N  0.56619639  0.03642285  0.45792216    -0.05800
N83         N  0.59185654  0.05669014  0.44837190    -0.60100
N84         N  0.54260519  0.95706786  0.43718978    -0.04800
N85         N  0.55184591  0.93562928  0.41256559    -0.57300
Mn86       Mn  0.56591635  0.99790980  0.00023364     1.20200
Mn87       Mn  0.50099624  0.99598517  0.43472163     1.10100
Cl88       Cl  0.50014925  0.99863640  0.99991881    -0.85300
C89         C  0.58322605  0.92396229  0.42274974     0.97000
C90         C  0.58256879  0.06777097  0.41658171     0.96800
N91         N  0.96112495  0.56394533  0.04314090    -0.05400
N92         N  0.94145354  0.58983099  0.05277383    -0.57600
N93         N  0.04155752  0.54137034  0.06462960    -0.05100
N94         N  0.06336367  0.55059775  0.08926407    -0.59700
N95         N  0.03938389  0.56570808  0.04102858    -0.04700
N96         N  0.05932185  0.59196083  0.04946452    -0.57500
N97         N  0.96303595  0.54080769  0.06793311    -0.04400
N98         N  0.94483490  0.55087293  0.09493874    -0.60000
C99         C  0.93113991  0.58132075  0.08496113     0.96700
C100        C  0.07455853  0.58203027  0.07928846     0.96500
N101        N  0.04059301  0.43444863  0.04034408    -0.05600
N102        N  0.06137237  0.40881414  0.04853923    -0.58100
N103        N  0.96322410  0.45790953  0.06698968    -0.03800
N104        N  0.94318174  0.44842377  0.09295303    -0.59400
N105        N  0.96213919  0.43471357  0.04237225    -0.05700
N106        N  0.94126706  0.40936890  0.05108738    -0.58400
N107        N  0.04180552  0.45837956  0.06421449    -0.03400
N108        N  0.06352365  0.44933154  0.08895471    -0.59500
Mn109      Mn  0.00250109  0.49950869  0.06644306     1.18400
C110        C  0.07580754  0.41850435  0.07873482     0.98800
C111        C  0.92937322  0.41821928  0.08254881     0.99500
N112        N  0.03747452  0.56392840  0.45908939    -0.05700
N113        N  0.05904149  0.58904918  0.45147597    -0.62000
N114        N  0.95920067  0.53886470  0.43479286    -0.04500
N115        N  0.93683431  0.54617808  0.41007919    -0.62700
N116        N  0.95842044  0.56257269  0.45885116    -0.05200
N117        N  0.93551080  0.58647582  0.45075520    -0.62300
N118        N  0.03832493  0.54014593  0.43511576    -0.04100
N119        N  0.06056181  0.54880901  0.41073208    -0.62900
Mn120      Mn  0.99878936  0.56477792  0.00055915     1.10700
C121        C  0.07350306  0.57930585  0.42138788     1.00000
C122        C  0.92195526  0.57580790  0.42038183     1.00100
N123        N  0.95915646  0.43366396  0.45838226    -0.05200
N124        N  0.93761123  0.40875498  0.44960564    -0.60600
N125        N  0.03907398  0.45766415  0.43430710    -0.04500
N126        N  0.06078807  0.44946495  0.40931548    -0.57300
N127        N  0.03817219  0.43315281  0.45774404    -0.05800
N128        N  0.05891608  0.40771862  0.44886598    -0.60100
N129        N  0.95992764  0.45738486  0.43413727    -0.04800
N130        N  0.93905096  0.44898892  0.40853582    -0.57300
Mn131      Mn  0.00020413  0.43391267  0.00014194     1.20200
Mn132      Mn  0.99930049  0.49861227  0.43407774     1.10100
Cl133      Cl  0.00014742  0.49934396  0.00052273    -0.85300
C134        C  0.92500604  0.41874998  0.41851200     0.97000
C135        C  0.07330094  0.41839915  0.41889593     0.96800
C136        C  0.25911347  0.25620417  0.21602543     0.46100
H137        H  0.25995668  0.25933527  0.18769189    -0.02900
C138        C  0.25523117  0.25111825  0.28243613     0.46200
H139        H  0.25394260  0.24905605  0.31096842    -0.02900
C140        C  0.28534586  0.27879693  0.23506195    -0.16600
C141        C  0.22393561  0.26741365  0.23034882    -0.16300
C142        C  0.26678020  0.21955726  0.22912645    -0.16700
C143        C  0.28320117  0.27589554  0.27010208    -0.16700
C144        C  0.22186814  0.26563322  0.26580957    -0.16300
C145        C  0.26557744  0.21712185  0.26478350    -0.16600
C146        C  0.74444158  0.25090228  0.21566261     0.46100
H147        H  0.74252853  0.24970275  0.18716417    -0.02900
C148        C  0.74756843  0.25191042  0.28237172     0.46200
H149        H  0.74888699  0.25252879  0.31097954    -0.02900
C150        C  0.71891081  0.27598638  0.23220044    -0.16600
C151        C  0.73595778  0.21618739  0.23237550    -0.16300
C152        C  0.77979630  0.26320154  0.22918826    -0.16700
C153        C  0.72051354  0.27639372  0.26738609    -0.16700
C154        C  0.73676870  0.21663840  0.26787316    -0.16300
C155        C  0.78145333  0.26348198  0.26484084    -0.16600
C156        C  0.25475895  0.74608448  0.21797186     0.46100
H157        H  0.25180519  0.74883938  0.18959951    -0.02900
C158        C  0.26217198  0.73888698  0.28400199     0.46200
H159        H  0.26465305  0.73510908  0.31213603    -0.02900
C160        C  0.28364664  0.72142297  0.22816491    -0.16600
C161        C  0.26553069  0.77964410  0.23613512    -0.16300
C162        C  0.22249209  0.73087726  0.23588910    -0.16700
C163        C  0.28772290  0.71736238  0.26286897    -0.16700
C164        C  0.26842762  0.77612591  0.27162809    -0.16300
C165        C  0.22640129  0.72754995  0.27110999    -0.16600
C166        C  0.74396037  0.74558865  0.21681543     0.46100
H167        H  0.74345666  0.74699850  0.18822419    -0.02900
C168        C  0.74501142  0.74241431  0.28353726     0.46200
H169        H  0.74576326  0.74083282  0.31213325    -0.02900
C170        C  0.71745855  0.72038858  0.23184624    -0.16600
C171        C  0.77878008  0.73261632  0.23146172    -0.16300
C172        C  0.73464212  0.77990760  0.23422154    -0.16700
C173        C  0.71778212  0.71907707  0.26715796    -0.16700
C174        C  0.77916979  0.73125624  0.26688255    -0.16300
C175        C  0.73521165  0.77823692  0.26984357    -0.16600
C176        C  0.10262776  0.65816322  0.13362540    -0.27500
C177        C  0.13557190  0.64791553  0.14527350     0.06100
C178        C  0.14842854  0.61591147  0.13404643     0.25700
C179        C  0.12841070  0.59455138  0.11287344    -0.12000
C180        C  0.09573601  0.60499544  0.10128135    -0.26000
C181        C  0.08310935  0.63719448  0.11155618     0.36500
C182        C  0.15602528  0.66998722  0.16960968     0.06100
F183        F  0.18073860  0.60548164  0.14284030    -0.19800
H184        H  0.13873009  0.56999038  0.10499149     0.15900
F185        F  0.05126165  0.64779505  0.10134969    -0.23500
H186        H  0.09158101  0.68216691  0.14215238     0.17700
C187        C  0.15877138  0.70587403  0.16514804     0.25700
C188        C  0.17920802  0.72563474  0.18762108    -0.12000
C189        C  0.19736501  0.71026255  0.21498509    -0.26000
C190        C  0.19489253  0.67440946  0.21915808     0.36600
C191        C  0.17387237  0.65486990  0.19737699    -0.27700
F192        F  0.14305049  0.72175004  0.13818364    -0.19800
H193        H  0.18156789  0.75296728  0.18313220     0.15900
F194        F  0.21446085  0.65770152  0.24288069    -0.23500
H195        H  0.17215442  0.62752485  0.20195397     0.17700
C196        C  0.19398412  0.66208953  0.33680886    -0.27500
C197        C  0.15830208  0.66714574  0.33572053     0.06100
C198        C  0.14466911  0.69298728  0.31428556     0.25700
C199        C  0.16673001  0.71276001  0.29338938    -0.12000
C200        C  0.20269931  0.70749239  0.29419814    -0.26000
C201        C  0.21599680  0.68211895  0.31673333     0.36500
C202        C  0.13591651  0.64493151  0.35709304     0.06100
F203        F  0.11007282  0.69858341  0.31312574    -0.19800
H204        H  0.15578343  0.73216785  0.27659151     0.15900
F205        F  0.25020748  0.67538282  0.31876845    -0.23500
H206        H  0.20487592  0.64239449  0.35334108     0.17700
C207        C  0.13213686  0.60997501  0.34930763     0.25700
C208        C  0.11215755  0.58866056  0.37049859    -0.12000
C209        C  0.09621699  0.60168265  0.40021235    -0.26000
C210        C  0.10088949  0.63662434  0.40840098     0.36600
C211        C  0.12033202  0.65800832  0.38680136    -0.27700
F212        F  0.14762837  0.59656344  0.32105035    -0.19800
H213        H  0.10916585  0.56193070  0.36363966     0.15900
F214        F  0.08634653  0.65039004  0.43697372    -0.23500
H215        H  0.12364825  0.68475079  0.39349825     0.17700
C216        C  0.16375012  0.29673841  0.33901522    -0.27500
C217        C  0.15736684  0.33125456  0.33001021     0.06100
C218        C  0.17224829  0.34382287  0.29928691     0.25700
C219        C  0.19283701  0.32257221  0.27866427    -0.12000
C220        C  0.19811119  0.28773124  0.28702615    -0.26000
C221        C  0.18360398  0.27525130  0.31780903     0.36500
C222        C  0.13567586  0.35382329  0.35283338     0.06100
F223        F  0.16661571  0.37657134  0.28871950    -0.19800
H224        H  0.20518910  0.33382672  0.25636765     0.15900
F225        F  0.18878512  0.24220499  0.32757689    -0.23500
H226        H  0.15375543  0.28633685  0.36289443     0.17700
C227        C  0.10536304  0.34124584  0.36872867     0.25700
C228        C  0.08586486  0.36212466  0.39076246    -0.12000
C229        C  0.09521011  0.39640574  0.39660452    -0.26000
C230        C  0.12486542  0.40941174  0.38029872     0.36600
C231        C  0.14515462  0.38819943  0.35920980    -0.27700
F232        F  0.09378605  0.30907533  0.36214052    -0.14000
H233        H  0.06272541  0.35173354  0.40252657     0.15900
F234        F  0.13477979  0.44237217  0.38557339    -0.23500
H235        H  0.16859377  0.39868278  0.34821685     0.17700
C236        C  0.14267569  0.30275899  0.18673096    -0.27500
C237        C  0.15705412  0.32804924  0.16515315     0.06100
C238        C  0.19296036  0.33254140  0.16457362     0.25700
C239        C  0.21413614  0.31244980  0.18549886    -0.12000
C240        C  0.20007806  0.28747589  0.20768755    -0.26000
C241        C  0.16403441  0.28265135  0.20806313     0.36500
C242        C  0.13498376  0.35064268  0.14380026     0.06100
F243        F  0.20757269  0.35641101  0.14359478    -0.19800
H244        H  0.24167219  0.31706886  0.18474740     0.15900
F245        F  0.14961832  0.25853782  0.22884855    -0.23500
H246        H  0.11494251  0.29901743  0.18740494     0.17700
C247        C  0.11718954  0.33786235  0.11505302     0.25700
C248        C  0.09862396  0.36019576  0.09357373    -0.12000
C249        C  0.09715442  0.39554845  0.10067207    -0.26000
C250        C  0.11490294  0.40817397  0.12967255     0.36600
C251        C  0.13380303  0.38588480  0.15082008    -0.27700
F252        F  0.11849899  0.30397554  0.10730832    -0.19800
H253        H  0.08507872  0.34971880  0.07155217     0.15900
F254        F  0.11442022  0.44207421  0.13741175    -0.23500
H255        H  0.14773172  0.39614100  0.17272863     0.17700
C256        C  0.81436922  0.32264127  0.15859098    -0.27500
C257        C  0.84966384  0.32359870  0.16594086     0.06100
C258        C  0.86268069  0.30318016  0.19292867     0.25700
C259        C  0.84023858  0.28248498  0.21248261    -0.12000
C260        C  0.80435241  0.28247120  0.20602375    -0.26000
C261        C  0.79194632  0.30264801  0.17818618     0.36500
C262        C  0.87194559  0.34667740  0.14526468     0.06100
F263        F  0.89701144  0.30307127  0.20014784    -0.19800
H264        H  0.85085911  0.26687430  0.23306028     0.15900
F265        F  0.75801386  0.30470457  0.17010391    -0.23500
H266        H  0.80388190  0.33831149  0.13794343     0.17700
C267        C  0.87429386  0.34243722  0.10942723     0.25700
C268        C  0.89262974  0.36605347  0.08936819    -0.12000
C269        C  0.90853561  0.39474151  0.10446922    -0.26000
C270        C  0.90582410  0.39919828  0.14040862     0.36600
C271        C  0.88786754  0.37516204  0.16057908    -0.27700
F272        F  0.85876393  0.31538524  0.09382699    -0.19800
H273        H  0.89425717  0.36190500  0.06184227     0.15900
F274        F  0.92073027  0.42647154  0.15616843    -0.23500
H275        H  0.88566372  0.37919261  0.18808894     0.17700
C276        C  0.84331478  0.29370871  0.33478447    -0.27500
C277        C  0.84459525  0.32933131  0.32871392     0.06100
C278        C  0.82629251  0.34264833  0.30019008     0.25700
C279        C  0.80709648  0.32093277  0.27881147    -0.12000
C280        C  0.80564232  0.28546515  0.28509811    -0.26000
C281        C  0.82376331  0.27205023  0.31348463     0.36500
C282        C  0.86475221  0.35244409  0.35207347     0.06100
F283        F  0.82563089  0.37688200  0.29380020    -0.19800
H284        H  0.79230626  0.33208647  0.25781892     0.15900
F285        F  0.82228135  0.23801256  0.32074644    -0.23500
H286        H  0.85748196  0.28254393  0.35619619     0.17700
C287        C  0.86275747  0.34931541  0.38825808     0.25700
C288        C  0.88218786  0.37098392  0.40970462    -0.12000
C289        C  0.90346408  0.39669755  0.39570010    -0.26000
C290        C  0.90509479  0.40013065  0.35957326     0.36600
C291        C  0.88624981  0.37807536  0.33818186    -0.27700
F292        F  0.84141519  0.32585509  0.40298076    -0.19800
H293        H  0.88032619  0.36786009  0.43739556     0.15900
F294        F  0.92587582  0.42401232  0.34472561    -0.23500
H295        H  0.88893743  0.38076253  0.31051623     0.17700
C296        C  0.86411154  0.64802609  0.38776426    -0.27500
C297        C  0.85817609  0.63826504  0.35339632     0.06100
C298        C  0.87187069  0.60683192  0.34196708     0.25700
C299        C  0.89138060  0.58617192  0.36431231    -0.12000
C300        C  0.89819969  0.59647304  0.39836012    -0.26000
C301        C  0.88393351  0.62754316  0.40999293     0.36500
C302        C  0.83894422  0.66170542  0.32962516     0.06100
F303        F  0.86801489  0.59679206  0.30873363    -0.19800
H304        H  0.90216432  0.56253958  0.35448735     0.15900
F305        F  0.88950893  0.63853834  0.44266209    -0.23500
H306        H  0.85358299  0.67184827  0.39741200     0.17700
C307        C  0.81273137  0.64945088  0.30758669     0.25700
C308        C  0.79492318  0.67207045  0.28583240    -0.12000
C309        C  0.80181047  0.70739936  0.28652402    -0.26000
C310        C  0.82767858  0.71980470  0.30845589     0.36600
C311        C  0.84635508  0.69710348  0.32946849    -0.27700
F312        F  0.80296090  0.61602176  0.30833641    -0.19800
H313        H  0.77456003  0.66221673  0.26943523     0.15900
F314        F  0.83467102  0.75387218  0.30968711    -0.23500
H315        H  0.86650212  0.70727674  0.34593357     0.17700
C316        C  0.87222635  0.65305762  0.11465362    -0.27500
C317        C  0.87452531  0.65049568  0.15066485     0.06100
C318        C  0.89627134  0.62538791  0.16522214     0.25700
C319        C  0.91441212  0.60260127  0.14386240    -0.12000
C320        C  0.91157106  0.60489903  0.10773228    -0.26000
C321        C  0.89067124  0.63080966  0.09339673     0.36500
C322        C  0.85107059  0.67169864  0.17209871     0.06100
F323        F  0.89890513  0.62203541  0.19995812    -0.19800
H324        H  0.93072316  0.58321854  0.15556098     0.15900
F325        F  0.88713499  0.63405881  0.05874325    -0.23500
H326        H  0.85552365  0.67211543  0.10293052     0.17700
C327        C  0.86324341  0.69462027  0.19727216     0.25700
C328        C  0.83983606  0.71504103  0.21582491    -0.12000
C329        C  0.80394933  0.71277727  0.20980471    -0.26000
C330        C  0.79222794  0.68969468  0.18442532     0.36600
C331        C  0.81547687  0.66960883  0.16601427    -0.27700
F332        F  0.89764696  0.69784415  0.20333321    -0.19800
H333        H  0.84973175  0.73264401  0.23496410     0.15900
F334        F  0.75824656  0.68538340  0.17764932    -0.23500
H335        H  0.80552397  0.65197858  0.14688720     0.17700
C336        C  0.65433384  0.12669704  0.38550549    -0.27500
C337        C  0.64954344  0.12623194  0.34967180     0.06100
C338        C  0.62273858  0.10624021  0.33575742     0.25700
C339        C  0.60068007  0.08763824  0.35762729    -0.12000
C340        C  0.60539601  0.08822950  0.39362036    -0.26000
C341        C  0.63278015  0.10770804  0.40728975     0.36500
C342        C  0.67132829  0.14862760  0.32766099     0.06100
F343        F  0.61732630  0.10546729  0.30119989    -0.19800
H344        H  0.58005506  0.07257353  0.34637936     0.15900
F345        F  0.63836989  0.10904805  0.44178698    -0.23500
H346        H  0.67480017  0.14206794  0.39665066     0.17700
C347        C  0.66948576  0.18428571  0.33154051     0.25700
C348        C  0.69143324  0.20576082  0.31282942    -0.12000
C349        C  0.71561281  0.19238325  0.28939861    -0.26000
C350        C  0.71746680  0.15648352  0.28550060     0.36600
C351        C  0.69532105  0.13483894  0.30437116    -0.27700
F352        F  0.64603156  0.19840796  0.35326055    -0.19800
H353        H  0.68889597  0.23301565  0.31648167     0.15900
F354        F  0.74103999  0.14232769  0.26398992    -0.23500
H355        H  0.69735414  0.10732710  0.30136071     0.17700
C356        C  0.70876456  0.14943082  0.16677169    -0.27500
C357        C  0.67243660  0.15197156  0.16809495     0.06100
C358        C  0.65758421  0.17490184  0.19189495     0.25700
C359        C  0.67847192  0.19421880  0.21385497    -0.12000
C360        C  0.71455704  0.19191920  0.21210964    -0.26000
C361        C  0.72965964  0.16972646  0.18812221     0.36500
C362        C  0.64999037  0.13096917  0.14492743     0.06100
F363        F  0.62288067  0.17989759  0.19297109    -0.19800
H364        H  0.66646670  0.21206840  0.23147708     0.15900
F365        F  0.76457145  0.16787607  0.18527503    -0.23500
H366        H  0.72105526  0.13176760  0.14918899     0.17700
C367        C  0.65778572  0.12639894  0.10973150     0.25700
C368        C  0.63548645  0.10755350  0.08842184    -0.12000
C369        C  0.60477815  0.09330495  0.10150740    -0.26000
C370        C  0.59714562  0.09773314  0.13666303     0.36600
C371        C  0.61972821  0.11583346  0.15803078    -0.27700
F372        F  0.68638455  0.14085442  0.09558670    -0.19800
H373        H  0.64211499  0.10439546  0.06151672     0.15900
F374        F  0.56817342  0.08403227  0.15079818    -0.23500
H375        H  0.61348507  0.11783998  0.18513310     0.17700
C376        C  0.33857745  0.12123011  0.10885698    -0.27500
C377        C  0.34630950  0.12662294  0.14370759     0.06100
C378        C  0.37781686  0.11465355  0.15709516     0.25700
C379        C  0.40129336  0.09756815  0.13573957    -0.12000
C380        C  0.39364311  0.09208710  0.10072832    -0.26000
C381        C  0.36184239  0.10402897  0.08752405     0.36500
C382        C  0.32369042  0.14889495  0.16448812     0.06100
F383        F  0.38636845  0.12062520  0.19047384    -0.19800
H384        H  0.42544980  0.08859812  0.14664273     0.15900
F385        F  0.35327397  0.09955710  0.05390985    -0.23500
H386        H  0.31466091  0.13095399  0.09803691     0.17700
C387        C  0.32215650  0.18380144  0.15659262     0.25700
C388        C  0.30264983  0.20583624  0.17676090    -0.12000
C389        C  0.28400187  0.19394872  0.20566916    -0.26000
C390        C  0.28372525  0.15823386  0.21210276     0.36600
C391        C  0.30402516  0.13604292  0.19204778    -0.27700
F392        F  0.34063183  0.19690486  0.12987564    -0.19800
H393        H  0.30342868  0.23244156  0.16957304     0.15900
F394        F  0.26367332  0.14464147  0.23733098    -0.23500
H395        H  0.30428618  0.10886630  0.19787233     0.17700
C396        C  0.34488732  0.17112207  0.30101864    -0.27500
C397        C  0.33085920  0.15173050  0.32822747     0.06100
C398        C  0.29478413  0.15316347  0.33361328     0.25700
C399        C  0.27364124  0.17382775  0.31253890    -0.12000
C400        C  0.28776339  0.19284044  0.28517311    -0.26000
C401        C  0.32376768  0.19135044  0.27978330     0.36500
C402        C  0.35415029  0.13094056  0.35115224     0.06100
F403        F  0.27984262  0.13425374  0.35896359    -0.19800
H404        H  0.24613900  0.17498882  0.31755285     0.15900
F405        F  0.33883476  0.21024147  0.25454129    -0.23500
H406        H  0.37251519  0.17130916  0.29663100     0.17700
C407        C  0.38053282  0.11016991  0.33734006     0.25700
C408        C  0.40262688  0.09139847  0.35908588    -0.12000
C409        C  0.39873230  0.09235188  0.39508785    -0.26000
C410        C  0.37256375  0.11322609  0.40895371     0.36600
C411        C  0.35074855  0.13237920  0.38723328    -0.27700
F412        F  0.38432972  0.10707979  0.30272670    -0.19800
H413        H  0.42225077  0.07529775  0.34762131     0.15900
F414        F  0.36833828  0.11557207  0.44357000    -0.23500
H415        H  0.33134022  0.14869667  0.39873208     0.17700
C416        C  0.64712978  0.86154814  0.11296550    -0.27500
C417        C  0.64675976  0.86646134  0.14886046     0.06100
C418        C  0.62424368  0.89126433  0.16259484     0.25700
C419        C  0.60199653  0.90984686  0.14097902    -0.12000
C420        C  0.60236470  0.90487275  0.10515666    -0.26000
C421        C  0.62536711  0.88068705  0.09127131     0.36500
C422        C  0.66963393  0.84551667  0.17170310     0.06100
F423        F  0.62453155  0.89838458  0.19680219    -0.19800
H424        H  0.58513497  0.92892378  0.15221216     0.15900
F425        F  0.62633279  0.87505230  0.05679824    -0.23500
H426        H  0.66408955  0.84257022  0.10171646     0.17700
C427        C  0.65625442  0.82862450  0.20091736     0.25700
C428        C  0.67769651  0.80833243  0.22168489    -0.12000
C429        C  0.71305324  0.80469617  0.21419309    -0.26000
C430        C  0.72632314  0.82090664  0.18465096     0.36600
C431        C  0.70485791  0.84124630  0.16375089    -0.27700
F432        F  0.62205018  0.83028857  0.20847155    -0.19800
H433        H  0.66628714  0.79439320  0.24299616     0.15900
F434        F  0.75995092  0.81661542  0.17573971    -0.23500
H435        H  0.71575198  0.85362822  0.14122243     0.17700
C436        C  0.69860310  0.85931824  0.31214740    -0.27500
C437        C  0.67432339  0.84498184  0.33505020     0.06100
C438        C  0.67138288  0.80923338  0.33716546     0.25700
C439        C  0.69172686  0.78826151  0.31650020    -0.12000
C440        C  0.71557431  0.80216273  0.29288419    -0.26000
C441        C  0.71900676  0.83810982  0.29105652     0.36500
C442        C  0.65133925  0.86672455  0.35644432     0.06100
F443        F  0.64878867  0.79447460  0.35948856    -0.19800
H444        H  0.68797515  0.76092642  0.31865929     0.15900
F445        F  0.74193486  0.85265349  0.26897460    -0.23500
H446        H  0.70127694  0.88689563  0.31018560     0.17700
C447        C  0.66486540  0.88887349  0.38155719     0.25700
C448        C  0.64260373  0.90674645  0.40362072    -0.12000
C449        C  0.60648760  0.90334977  0.40060171    -0.26000
C450        C  0.59303212  0.88147309  0.37516552     0.36600
C451        C  0.61528410  0.86323424  0.35352465    -0.27700
F452        F  0.69956160  0.89246719  0.38538368    -0.19800
H453        H  0.65364220  0.92364881  0.42279004     0.15900
F454        F  0.55838957  0.87710498  0.37168102    -0.23500
H455        H  0.60435786  0.84609653  0.33448896     0.17700
C456        C  0.30384584  0.86019461  0.30909679    -0.27500
C457        C  0.32611350  0.84747615  0.33470969     0.06100
C458        C  0.32644027  0.81241244  0.34191660     0.25700
C459        C  0.30611526  0.79007634  0.32278692    -0.12000
C460        C  0.28565476  0.80179149  0.29502377    -0.26000
C461        C  0.28349055  0.83758835  0.28950458     0.36500
C462        C  0.34901227  0.87017073  0.35465963     0.06100
F463        F  0.34688166  0.79964402  0.36740131    -0.19800
H464        H  0.30770354  0.76343230  0.32970637     0.15900
F465        F  0.26164170  0.85079547  0.26551473    -0.23500
H466        H  0.30256123  0.88748995  0.30404930     0.17700
C467        C  0.38462157  0.87108005  0.34773031     0.25700
C468        C  0.40706286  0.88890577  0.36957980    -0.12000
C469        C  0.39440673  0.90551382  0.39902910    -0.26000
C470        C  0.35857705  0.90457493  0.40579057     0.36600
C471        C  0.33616369  0.88712542  0.38363832    -0.27700
F472        F  0.39769970  0.85405979  0.32023944    -0.19800
H473        H  0.43442741  0.88928688  0.36373639     0.15900
F474        F  0.34503145  0.92058212  0.43365805    -0.23500
H475        H  0.30883787  0.88600624  0.38960937     0.17700
C476        C  0.37966676  0.88607901  0.16239800    -0.27500
C477        C  0.35288171  0.86587259  0.14855447     0.06100
C478        C  0.34852878  0.86579741  0.11239915     0.25700
C479        C  0.37012514  0.88562803  0.09108241    -0.12000
C480        C  0.39707606  0.90539903  0.10505067    -0.26000
C481        C  0.40175449  0.90516105  0.14106444     0.36500
C482        C  0.33008344  0.84491260  0.17191966     0.06100
F483        F  0.32400393  0.84588833  0.09743018    -0.19800
H484        H  0.36599834  0.88518116  0.06347545     0.15900
F485        F  0.42704180  0.92420220  0.15594975    -0.23500
H486        H  0.38334380  0.88754838  0.19000987     0.17700
C487        C  0.34408433  0.82652575  0.20006564     0.25700
C488        C  0.32277251  0.80680007  0.22154857    -0.12000
C489        C  0.28696799  0.80449078  0.21564512    -0.26000
C490        C  0.27287860  0.82251882  0.18751916     0.36600
C491        C  0.29409199  0.84287749  0.16628527    -0.27700
F492        F  0.37866418  0.82624866  0.20605163    -0.19800
H493        H  0.33454349  0.79234247  0.24233842     0.15900
F494        F  0.23857084  0.82032111  0.18050179    -0.23500
H495        H  0.28225084  0.85706731  0.14535170     0.17700
C496        C  0.36053257  0.67803576  0.31473459    -0.27500
C497        C  0.35256907  0.64293372  0.31265846     0.06100
C498        C  0.32523692  0.63236856  0.29122413     0.25700
C499        C  0.30499343  0.65676519  0.27411191    -0.12000
C500        C  0.31155519  0.69189898  0.27835634    -0.26000
C501        C  0.34061971  0.70226782  0.29721050     0.36500
C502        C  0.37135095  0.61822355  0.33491571     0.06100
F503        F  0.31789883  0.59858713  0.28716777    -0.19800
H504        H  0.28340984  0.64834308  0.25846916     0.15900
F505        F  0.35064500  0.73553500  0.29763549    -0.23500
H506        H  0.38173858  0.68686862  0.33064621     0.17700
C507        C  0.40750116  0.61992043  0.33825544     0.25700
C508        C  0.42428952  0.60098009  0.36384058    -0.12000
C509        C  0.40548886  0.57964319  0.38622370    -0.26000
C510        C  0.36965003  0.57600864  0.38133680     0.36600
C511        C  0.35275386  0.59536718  0.35599852    -0.27700
F512        F  0.42650225  0.64061769  0.31739655    -0.19800
H513        H  0.45200576  0.60372354  0.36673467     0.15900
F514        F  0.35057668  0.55566074  0.40245286    -0.23500
H515        H  0.32485925  0.59388806  0.35416027     0.17700
C516        C  0.36226453  0.68770817  0.18384021    -0.27500
C517        C  0.34752772  0.66340666  0.16180440     0.06100
C518        C  0.31136239  0.66031356  0.15953063     0.25700
C519        C  0.29034268  0.68067191  0.18011811    -0.12000
C520        C  0.30532765  0.70397431  0.20298002    -0.26000
C521        C  0.34130241  0.70820184  0.20403371     0.36500
C522        C  0.37019416  0.64133050  0.14151155     0.06100
F523        F  0.29649975  0.63760098  0.13759886    -0.19800
H524        H  0.26254057  0.67743357  0.17914394     0.15900
F525        F  0.35617340  0.73158995  0.22514998    -0.23500
H526        H  0.39007567  0.69032719  0.18591712     0.17700
C527        C  0.39680242  0.65570143  0.12159653     0.25700
C528        C  0.41757893  0.63468266  0.10163766    -0.12000
C529        C  0.41169963  0.59924551  0.10090609    -0.26000
C530        C  0.38599240  0.58467495  0.12191202     0.36600
C531        C  0.36545356  0.60571012  0.14221129    -0.27700
F532        F  0.40163111  0.69016272  0.12016526    -0.19800
H533        H  0.43714954  0.64637780  0.08548597     0.15900
F534        F  0.38032103  0.55030898  0.12241994    -0.23500
H535        H  0.34560247  0.59427143  0.15821766     0.17700
C536        C  0.63663373  0.59370781  0.34516795    -0.27500
C537        C  0.62757613  0.62832577  0.34082733     0.06100
C538        C  0.59749145  0.64099412  0.35633901     0.25700
C539        C  0.57772220  0.61974773  0.37718759    -0.12000
C540        C  0.58804797  0.58583568  0.38363006    -0.26000
C541        C  0.61711821  0.57251579  0.36667210     0.36500
C542        C  0.65061317  0.65182349  0.32218520     0.06100
F543        F  0.58855014  0.67454882  0.35344902    -0.19800
H544        H  0.55544994  0.63063522  0.38998274     0.15900
F545        F  0.62731210  0.53956819  0.37171459    -0.23500
H546        H  0.65944332  0.58344669  0.33277815     0.17700
C547        C  0.68587900  0.65357965  0.33074470     0.25700
C548        C  0.70730470  0.67674139  0.31377419    -0.12000
C549        C  0.69395528  0.69807567  0.28792641    -0.26000
C550        C  0.65829239  0.69790848  0.28094669     0.36600
C551        C  0.63696019  0.67434996  0.29743151    -0.27700
F552        F  0.69946504  0.63338015  0.35591112    -0.19800
H553        H  0.73444771  0.67745387  0.32039240     0.15900
F554        F  0.64412595  0.72047320  0.25825303    -0.23500
H555        H  0.60971498  0.67374752  0.29094010     0.17700
C556        C  0.67223582  0.64295427  0.19461873    -0.27500
C557        C  0.65301122  0.65788937  0.16786438     0.06100
C558        C  0.65511353  0.69348993  0.16216953     0.25700
C559        C  0.67612183  0.71370972  0.18313549    -0.12000
C560        C  0.69527395  0.69869465  0.20986857    -0.26000
C561        C  0.69371303  0.66299959  0.21505862     0.36500
C562        C  0.63237561  0.63596022  0.14484019     0.06100
F563        F  0.63779290  0.70850923  0.13566915    -0.19800
H564        H  0.67743731  0.74109194  0.17853995     0.15900
F565        F  0.71378095  0.64731701  0.23910212    -0.23500
H566        H  0.67102492  0.61559016  0.19935116     0.17700
C567        C  0.64726686  0.60686771  0.12961884     0.25700
C568        C  0.62849454  0.58767458  0.10592873    -0.12000
C569        C  0.59475238  0.59727835  0.09680289    -0.26000
C570        C  0.57929404  0.62553266  0.11310350     0.36600
C571        C  0.59805551  0.64464825  0.13700428    -0.27700
F572        F  0.68053725  0.59793929  0.13630611    -0.19800
H573        H  0.64089694  0.56595031  0.09383287     0.15900
F574        F  0.54632955  0.63500531  0.10572256    -0.23500
H575        H  0.58594489  0.66653881  0.14910124     0.17700
C576        C  0.60605766  0.34388597  0.37073842    -0.27500
C577        C  0.63233738  0.35976564  0.35155132     0.06100
C578        C  0.63672780  0.39544732  0.35360910     0.25700
C579        C  0.61641197  0.41454365  0.37607616    -0.12000
C580        C  0.59111233  0.39845770  0.39638293    -0.26000
C581        C  0.58540577  0.36303728  0.39288556     0.36500
C582        C  0.65520078  0.33876618  0.32985926     0.06100
F583        F  0.66058316  0.41182655  0.33389329    -0.19800
H584        H  0.62083232  0.44190289  0.37794891     0.15900
F585        F  0.56107151  0.34658226  0.41193423    -0.23500
H586        H  0.60219913  0.31641163  0.36932143     0.17700
C587        C  0.69140390  0.34143533  0.33259576     0.25700
C588        C  0.71262355  0.32078252  0.31238844    -0.12000
C589        C  0.69799057  0.29758441  0.28913061    -0.26000
C590        C  0.66192081  0.29436685  0.28686794     0.36600
C591        C  0.64070523  0.31485345  0.30711646    -0.27700
F592        F  0.70623756  0.36328674  0.35541105    -0.19800
H593        H  0.74038854  0.32307082  0.31465738     0.15900
F594        F  0.64728772  0.27072983  0.26580402    -0.23500
H595        H  0.61293986  0.31212979  0.30500256     0.17700
C596        C  0.68534044  0.35881324  0.19463692    -0.27500
C597        C  0.66056389  0.34679041  0.17124321     0.06100
C598        C  0.65535435  0.31123423  0.16764969     0.25700
C599        C  0.67429287  0.28821788  0.18773976    -0.12000
C600        C  0.69828261  0.30036430  0.21174734    -0.26000
C601        C  0.70408816  0.33579840  0.21482756     0.36500
C602        C  0.64048503  0.37139528  0.15043922     0.06100
F603        F  0.63261179  0.29876530  0.14413774    -0.19800
H604        H  0.67025742  0.26095338  0.18455575     0.15900
F605        F  0.72883745  0.34801646  0.23635297    -0.23500
H606        H  0.69001913  0.38606020  0.19736650     0.17700
C607        C  0.60431390  0.36918025  0.14929484     0.25700
C608        C  0.58563676  0.39050866  0.12734659    -0.12000
C609        C  0.60262031  0.41461059  0.10642466    -0.26000
C610        C  0.63865171  0.41851174  0.10925621     0.36600
C611        C  0.65743903  0.39686431  0.13111673    -0.27700
F612        F  0.58705411  0.34613769  0.16915578    -0.19800
H613        H  0.55782221  0.38750760  0.12606602     0.15900
F614        F  0.65590701  0.44177673  0.08966284    -0.23500
H615        H  0.68533587  0.39912179  0.13201796     0.17700
C616        C  0.35683388  0.39129024  0.36593467    -0.27500
C617        C  0.36555386  0.35677309  0.36116940     0.06100
C618        C  0.39447957  0.34288495  0.37808671     0.25700
C619        C  0.41402272  0.36327871  0.39994399    -0.12000
C620        C  0.40466019  0.39750603  0.40557974    -0.26000
C621        C  0.37604351  0.41156357  0.38823087     0.36500
C622        C  0.34439561  0.33542677  0.33849439     0.06100
F623        F  0.40311134  0.30934782  0.37447409    -0.19800
H624        H  0.43586384  0.35193640  0.41325290     0.15900
F625        F  0.36647868  0.44471710  0.39284095    -0.23500
H626        H  0.33503616  0.40251148  0.35244338     0.17700
C627        C  0.30821633  0.33494026  0.34174572     0.25700
C628        C  0.28849248  0.31498781  0.31957270    -0.12000
C629        C  0.30464400  0.29532708  0.29421711    -0.26000
C630        C  0.34082602  0.29491711  0.29172787     0.36600
C631        C  0.36049302  0.31531296  0.31340200    -0.27700
F632        F  0.29204085  0.35336931  0.36655260    -0.19800
H633        H  0.26059982  0.31524712  0.32187761     0.15900
F634        F  0.35724110  0.27462799  0.26871448    -0.23500
H635        H  0.38833494  0.31552212  0.31047843     0.17700
C636        C  0.41098433  0.36946787  0.16165350    -0.27500
C637        C  0.37502512  0.37410940  0.16436868     0.06100
C638        C  0.35935365  0.40107254  0.14584511     0.25700
C639        C  0.37893298  0.42155809  0.12382512    -0.12000
C640        C  0.41422788  0.41505633  0.11897868    -0.26000
C641        C  0.43043614  0.38945264  0.13883371     0.36500
C642        C  0.35356606  0.34957529  0.18438858     0.06100
F643        F  0.32466777  0.40616744  0.14691620    -0.19800
H644        H  0.36584289  0.44113799  0.10884378     0.15900
F645        F  0.46476631  0.38305026  0.13551089    -0.23500
H646        H  0.42391027  0.34967597  0.17647521     0.17700
C647        C  0.35883317  0.31392585  0.18158451     0.25700
C648        C  0.33669246  0.29107805  0.19831182    -0.12000
C649        C  0.30854469  0.30317341  0.21730902    -0.26000
C650        C  0.30360551  0.33858975  0.22085321     0.36600
C651        C  0.32618990  0.36155291  0.20487640    -0.27700
F652        F  0.38467893  0.30100087  0.16191156    -0.19800
H653        H  0.34215450  0.26395874  0.19712245     0.15900
F654        F  0.27672461  0.35090194  0.23951309    -0.23500
H655        H  0.32203602  0.38877996  0.20827917     0.17700
N656        N  0.56853682  0.46108309  0.53927906    -0.05400
N657        N  0.59239984  0.45681002  0.56328064    -0.57600
N658        N  0.53916315  0.43270301  0.96310214    -0.05100
N659        N  0.54262292  0.40875855  0.93949199    -0.59700
N660        N  0.56254312  0.45678839  0.95885119    -0.04700
N661        N  0.58234124  0.44988999  0.93221372    -0.57500
N662        N  0.54432905  0.43765994  0.54232778    -0.04400
N663        N  0.55089249  0.41712305  0.56844005    -0.60000
C664        C  0.58080189  0.42938704  0.58139541     0.96700
C665        C  0.56953468  0.41993718  0.92029529     0.96500
N666        N  0.43486479  0.45493235  0.96817073    -0.05600
N667        N  0.41087088  0.44661124  0.94567917    -0.58100
N668        N  0.46420986  0.43730823  0.54701774    -0.03800
N669        N  0.46047677  0.41709898  0.57407853    -0.59400
N670        N  0.43973020  0.46065433  0.54616057    -0.05700
N671        N  0.41868408  0.45671545  0.57256502    -0.58400
N672        N  0.45906292  0.43137532  0.96945276    -0.03400
N673        N  0.45212349  0.40637809  0.94785126    -0.59500
Mn674      Mn  0.50220860  0.43315866  0.50554878     1.18400
C675        C  0.42210945  0.41639966  0.93313127     0.98800
C676        C  0.43211275  0.42963908  0.58992276     0.99500
N677        N  0.56129905  0.53624582  0.95128916    -0.05700
N678        N  0.58141503  0.54023564  0.92414800    -0.62000
N679        N  0.54245315  0.56433414  0.53211557    -0.04500
N680        N  0.54764916  0.58734852  0.55635613    -0.62700
N681        N  0.56688809  0.54095863  0.53282307    -0.05200
N682        N  0.58931700  0.54754072  0.55748714    -0.62300
N683        N  0.53665272  0.55935031  0.95115606    -0.04100
N684        N  0.53923924  0.57944324  0.92403934    -0.62900
Mn685      Mn  0.56636054  0.49997179  0.99422268     1.10700
C686        C  0.56708115  0.56715786  0.90726062     1.00000
C687        C  0.57690119  0.57644962  0.57202964     1.00100
N688        N  0.43854748  0.54035176  0.53867423    -0.05200
N689        N  0.41684451  0.54830549  0.56344353    -0.60600
N690        N  0.45724427  0.55844243  0.95575398    -0.04500
N691        N  0.45155377  0.57748403  0.92827064    -0.57300
N692        N  0.43323712  0.53482130  0.95903055    -0.05800
N693        N  0.41031257  0.53757332  0.93383454    -0.60100
N694        N  0.46225034  0.56419693  0.53523459    -0.04800
N695        N  0.45723890  0.58903755  0.55748152    -0.57300
Mn696      Mn  0.43575453  0.49739729  0.50327437     1.20200
Mn697      Mn  0.49949016  0.56362332  0.99267649     1.10100
Cl698      Cl  0.50134688  0.49771557  0.49997506    -0.85300
C699        C  0.42902957  0.57859453  0.57506157     0.97000
C700        C  0.42230678  0.56424346  0.91475460     0.96800
N701        N  0.43532997  0.95997118  0.54317960    -0.05400
N702        N  0.41025220  0.93869682  0.55239668    -0.57600
N703        N  0.45824999  0.03911492  0.56459636    -0.05100
N704        N  0.44799003  0.05985492  0.58947913    -0.59700
N705        N  0.43485907  0.03820239  0.53991997    -0.04700
N706        N  0.40858601  0.05835892  0.54743499    -0.57500
N707        N  0.45926235  0.96110272  0.56736313    -0.04400
N708        N  0.45072880  0.94084344  0.59340049    -0.60000
C709        C  0.42023798  0.92670030  0.58373353     0.96700
C710        C  0.41709363  0.07200677  0.57823970     0.96500
N711        N  0.56579701  0.03947307  0.54084253    -0.05600
N712        N  0.59133225  0.06038958  0.54944384    -0.58100
N713        N  0.54244507  0.96203667  0.56758806    -0.03800
N714        N  0.55124437  0.94161431  0.59342714    -0.59400
N715        N  0.56622685  0.96115555  0.54334129    -0.05700
N716        N  0.59133072  0.93982614  0.55209134    -0.58400
N717        N  0.54153125  0.03994233  0.56464007    -0.03400
N718        N  0.55024067  0.06106490  0.58970666    -0.59500
Mn719      Mn  0.50041395  0.00061454  0.56652341     1.18400
C720        C  0.58120878  0.07393570  0.57990573     0.98800
C721        C  0.58155887  0.92756863  0.58325152     0.99500
N722        N  0.43537356  0.03778592  0.95705806    -0.05700
N723        N  0.41065745  0.05955485  0.94806281    -0.62000
N724        N  0.45802474  0.95862787  0.93558278    -0.04500
N725        N  0.44811699  0.93756527  0.91083696    -0.62700
N726        N  0.43462877  0.95940753  0.96017685    -0.05200
N727        N  0.40876026  0.93863053  0.95289756    -0.62300
N728        N  0.45924821  0.03658289  0.93290406    -0.04100
N729        N  0.45098800  0.05728607  0.90706844    -0.62900
Mn730      Mn  0.43498972  0.99814033  0.50032850     1.10700
C731        C  0.42078558  0.07183713  0.91692708     1.00000
C732        C  0.41757565  0.92492186  0.92227002     1.00100
N733        N  0.56539293  0.95801198  0.96009779    -0.05200
N734        N  0.59140366  0.93771218  0.95187590    -0.60600
N735        N  0.54232163  0.03515496  0.93343906    -0.04500
N736        N  0.55190013  0.05497485  0.90743793    -0.57300
N737        N  0.56589992  0.03573264  0.95796952    -0.05800
N738        N  0.59173820  0.05602658  0.94914635    -0.60100
N739        N  0.54138940  0.95719959  0.93595515    -0.04800
N740        N  0.55072667  0.93609460  0.91103273    -0.57300
Mn741      Mn  0.56669217  0.99901858  0.50083714     1.20200
Mn742      Mn  0.50022103  0.99681480  0.93390622     1.10100
Cl743      Cl  0.50078742  0.99846607  0.50060279    -0.85300
C744        C  0.58184532  0.92384436  0.92143137     0.97000
C745        C  0.58262663  0.06812646  0.91772649     0.96800
N746        N  0.95961359  0.56327595  0.54175159    -0.05400
N747        N  0.93982984  0.58926514  0.55084144    -0.57600
N748        N  0.03965219  0.54068534  0.56484617    -0.05100
N749        N  0.06148721  0.54973080  0.58955144    -0.59700
N750        N  0.03802906  0.56489128  0.54110187    -0.04700
N751        N  0.05834753  0.59087651  0.54944233    -0.57500
N752        N  0.96082996  0.54015168  0.56660222    -0.04400
N753        N  0.94200797  0.55037969  0.59313218    -0.60000
C754        C  0.92867725  0.58089725  0.58276905     0.96700
C755        C  0.07324928  0.58093679  0.57941959     0.96500
N756        N  0.03904504  0.43388161  0.54025904    -0.05600
N757        N  0.06021673  0.40859702  0.54857801    -0.58100
N758        N  0.96149463  0.45681540  0.56625125    -0.03800
N759        N  0.94254137  0.44649751  0.59272212    -0.59400
N760        N  0.96065981  0.43359801  0.54161148    -0.05700
N761        N  0.94098796  0.40746088  0.55087125    -0.58400
N762        N  0.03987992  0.45791108  0.56405387    -0.03400
N763        N  0.06171409  0.44933629  0.58882367    -0.59500
Mn764      Mn  0.00046638  0.49881769  0.56593294     1.18400
C765        C  0.07447098  0.41867754  0.57874786     0.98800
C766        C  0.92961183  0.41580138  0.58267237     0.99500
N767        N  0.03723042  0.56482029  0.95873567    -0.05700
N768        N  0.05840485  0.59005933  0.95038168    -0.62000
N769        N  0.95872821  0.53907974  0.93605442    -0.04500
N770        N  0.93586515  0.54598357  0.91168701    -0.62700
N771        N  0.95816635  0.56296405  0.95995784    -0.05200
N772        N  0.93489966  0.58661799  0.95202177    -0.62300
N773        N  0.03776521  0.54082910  0.93496075    -0.04100
N774        N  0.05937310  0.54940040  0.91002812    -0.62900
Mn775      Mn  0.99820156  0.56402281  0.50005463     1.10700
C776        C  0.07226921  0.58008455  0.92007341     1.00000
C777        C  0.92089038  0.57556252  0.92195739     1.00100
N778        N  0.95979781  0.43408216  0.95963205    -0.05200
N779        N  0.93839167  0.40896003  0.95117410    -0.60600
N780        N  0.03916377  0.45838129  0.93438173    -0.04500
N781        N  0.06051483  0.45016195  0.90907980    -0.57300
N782        N  0.03873693  0.43394831  0.95791910    -0.05800
N783        N  0.05943123  0.40856435  0.94883257    -0.60100
N784        N  0.96005520  0.45776341  0.93536904    -0.04800
N785        N  0.93896729  0.44915146  0.91003346    -0.57300
Mn786      Mn  0.99908815  0.43318024  0.49953796     1.20200
Mn787      Mn  0.99910582  0.49913003  0.93471186     1.10100
Cl788      Cl  0.99918699  0.49863546  0.49996192    -0.85300
C789        C  0.92533604  0.41881162  0.92023759     0.97000
C790        C  0.07329289  0.41917755  0.91860824     0.96800
C791        C  0.25897924  0.25775263  0.71592419     0.46100
H792        H  0.26032965  0.26213281  0.68775937    -0.02900
C793        C  0.25412070  0.25007253  0.78205317     0.46200
H794        H  0.25237451  0.24685876  0.81045494    -0.02900
C795        C  0.28523306  0.27917370  0.73631897    -0.16600
C796        C  0.22370193  0.26858436  0.73025933    -0.16300
C797        C  0.26596220  0.22054347  0.72755649    -0.16700
C798        C  0.28249713  0.27500297  0.77117390    -0.16700
C799        C  0.22115606  0.26562114  0.76559374    -0.16300
C800        C  0.26446266  0.21671693  0.76309432    -0.16600
C801        C  0.74426844  0.25178352  0.71836385     0.46100
H802        H  0.74226294  0.25123619  0.68983247    -0.02900
C803        C  0.74799352  0.25186398  0.78505987     0.46200
H804        H  0.74974275  0.25212996  0.81364771    -0.02900
C805        C  0.71893829  0.27667427  0.73551439    -0.16600
C806        C  0.73566732  0.21683030  0.73462726    -0.16300
C807        C  0.77977652  0.26366331  0.73185731    -0.16700
C808        C  0.72065915  0.27638972  0.77072363    -0.16700
C809        C  0.73701146  0.21683248  0.77016858    -0.16300
C810        C  0.78167226  0.26357144  0.76742178    -0.16600
C811        C  0.25467616  0.74744536  0.71754704     0.46100
H812        H  0.25191873  0.75126036  0.68927593    -0.02900
C813        C  0.26142171  0.73792899  0.78331877     0.46200
H814        H  0.26348277  0.73294732  0.81127153    -0.02900
C815        C  0.28381129  0.72283853  0.72710942    -0.16600
C816        C  0.26487371  0.78044823  0.73713987    -0.16300
C817        C  0.22244882  0.73106693  0.73444933    -0.16700
C818        C  0.28754055  0.71758257  0.76171083    -0.16700
C819        C  0.26738038  0.77565685  0.77254711    -0.16300
C820        C  0.22597541  0.72673848  0.76955385    -0.16600
C821        C  0.74418008  0.74559424  0.71714157     0.46100
H822        H  0.74334537  0.74723473  0.68857450    -0.02900
C823        C  0.74564718  0.74193682  0.78383318     0.46200
H824        H  0.74660488  0.74010883  0.81240360    -0.02900
C825        C  0.71791134  0.72021114  0.73217803    -0.16600
C826        C  0.77912540  0.73263421  0.73136314    -0.16300
C827        C  0.73492925  0.77974085  0.73482027    -0.16700
C828        C  0.71826011  0.71878900  0.76746143    -0.16700
C829        C  0.77977271  0.73086986  0.76680557    -0.16300
C830        C  0.73566486  0.77787973  0.77045506    -0.16600
C831        C  0.10296646  0.65732555  0.63256468    -0.27500
C832        C  0.13598289  0.64692116  0.64391273     0.06100
C833        C  0.14825183  0.61455166  0.63297578     0.25700
C834        C  0.12761394  0.59307189  0.61248064    -0.12000
C835        C  0.09491915  0.60374607  0.60115464    -0.26000
C836        C  0.08291767  0.63629646  0.61102652     0.36500
C837        C  0.15700591  0.66919858  0.66770423     0.06100
F838        F  0.18060152  0.60386348  0.64128474    -0.19800
H839        H  0.13752324  0.56828252  0.60480085     0.15900
F840        F  0.05118727  0.64726917  0.60085681    -0.23500
H841        H  0.09224072  0.68153438  0.64088859     0.17700
C842        C  0.15906084  0.70520201  0.66349307     0.25700
C843        C  0.17941728  0.72521017  0.68585843    -0.12000
C844        C  0.19826194  0.70999758  0.71282889    -0.26000
C845        C  0.19681848  0.67403024  0.71650009     0.36600
C846        C  0.17580970  0.65423806  0.69493714    -0.27700
F847        F  0.14255371  0.72105547  0.63699187    -0.19800
H848        H  0.18097411  0.75265118  0.68172419     0.15900
F849        F  0.21715676  0.65753664  0.73972599    -0.23500
H850        H  0.17467378  0.62686308  0.69946074     0.17700
C851        C  0.19259104  0.66033884  0.83367803    -0.27500
C852        C  0.15696414  0.66583843  0.83246319     0.06100
C853        C  0.14367390  0.69175657  0.81093181     0.25700
C854        C  0.16605575  0.71156563  0.79048034    -0.12000
C855        C  0.20197321  0.70612117  0.79170596    -0.26000
C856        C  0.21491846  0.68026847  0.81386149     0.36500
C857        C  0.13428249  0.64424447  0.85408680     0.06100
F858        F  0.10911230  0.69746436  0.80932867    -0.19800
H859        H  0.15540906  0.73122483  0.77378453     0.15900
F860        F  0.24906233  0.67304710  0.81574778    -0.23500
H861        H  0.20318601  0.64045674  0.85017512     0.17700
C862        C  0.13041220  0.60915123  0.84707352     0.25700
C863        C  0.11044112  0.58838546  0.86876883    -0.12000
C864        C  0.09459204  0.60211608  0.89820788    -0.26000
C865        C  0.09912099  0.63725772  0.90548636     0.36600
C866        C  0.11859309  0.65808984  0.88339201    -0.27700
F867        F  0.14587835  0.59505585  0.81914070    -0.19800
H868        H  0.10747925  0.56148914  0.86257584     0.15900
F869        F  0.08447001  0.65170863  0.93365667    -0.23500
H870        H  0.12192725  0.68498646  0.88943606     0.17700
C871        C  0.16286885  0.29670776  0.83884295    -0.27500
C872        C  0.15702118  0.33139978  0.83010077     0.06100
C873        C  0.17245181  0.34407219  0.79971646     0.25700
C874        C  0.19306643  0.32281271  0.77919727    -0.12000
C875        C  0.19766429  0.28777339  0.78709899    -0.26000
C876        C  0.18267495  0.27515874  0.81761040     0.36500
C877        C  0.13537116  0.35411687  0.85280958     0.06100
F878        F  0.16732508  0.37695779  0.78933091    -0.19800
H879        H  0.20598935  0.33426370  0.75735351     0.15900
F880        F  0.18733346  0.24195628  0.82709760    -0.23500
H881        H  0.15247327  0.28620935  0.86250464     0.17700
C882        C  0.10474692  0.34186337  0.86835044     0.25700
C883        C  0.08526692  0.36294381  0.89020310    -0.12000
C884        C  0.09493255  0.39712101  0.89615514    -0.26000
C885        C  0.12482787  0.40984928  0.88009985     0.36600
C886        C  0.14513396  0.38840669  0.85928327    -0.27700
F887        F  0.09287601  0.30982942  0.86161444    -0.14000
H888        H  0.06193542  0.35278410  0.90178996     0.15900
F889        F  0.13497888  0.44273554  0.88539509    -0.23500
H890        H  0.16880950  0.39865604  0.84858479     0.17700
C891        C  0.14282124  0.30346986  0.68589812    -0.27500
C892        C  0.15694004  0.33043616  0.66627888     0.06100
C893        C  0.19262656  0.33652129  0.66760243     0.25700
C894        C  0.21385822  0.31593500  0.68801224    -0.12000
C895        C  0.19997231  0.28919451  0.70808091    -0.26000
C896        C  0.16415572  0.28311871  0.70697809     0.36500
C897        C  0.13478626  0.35257961  0.64449943     0.06100
F898        F  0.20701660  0.36222601  0.64877442    -0.19800
H899        H  0.24124216  0.32144948  0.68861422     0.15900
F900        F  0.14997872  0.25741447  0.72592432    -0.23500
H901        H  0.11528274  0.29851893  0.68517298     0.17700
C902        C  0.11724082  0.33919818  0.61585808     0.25700
C903        C  0.09835990  0.36096858  0.59409271    -0.12000
C904        C  0.09627799  0.39634060  0.60081519    -0.26000
C905        C  0.11377268  0.40959984  0.62968370     0.36600
C906        C  0.13298599  0.38787668  0.65112731    -0.27700
F907        F  0.11909214  0.30525418  0.60848730    -0.19800
H908        H  0.08500939  0.35003182  0.57218049     0.15900
F909        F  0.11268151  0.44357457  0.63704548    -0.23500
H910        H  0.14660340  0.39860943  0.67299585     0.17700
C911        C  0.81546658  0.32275279  0.66163782    -0.27500
C912        C  0.85101170  0.32171615  0.66794062     0.06100
C913        C  0.86359621  0.30061008  0.69462022     0.25700
C914        C  0.84060331  0.28089722  0.71456676    -0.12000
C915        C  0.80464786  0.28256054  0.70882179    -0.26000
C916        C  0.79252060  0.30384325  0.68177979     0.36500
C917        C  0.87395366  0.34381878  0.64680427     0.06100
F918        F  0.89801755  0.29886824  0.70116656    -0.19800
H919        H  0.85086984  0.26463539  0.73481649     0.15900
F920        F  0.75842112  0.30807632  0.67529588    -0.23500
H921        H  0.80526148  0.33921261  0.64147997     0.17700
C922        C  0.87503402  0.33990170  0.61084736     0.25700
C923        C  0.89316604  0.36338528  0.59036721    -0.12000
C924        C  0.91013591  0.39162587  0.60518119    -0.26000
C925        C  0.90940404  0.39528114  0.64132578     0.36600
C926        C  0.89159265  0.37143104  0.66187261    -0.27700
F927        F  0.85820985  0.31346023  0.59552031    -0.19800
H928        H  0.89350660  0.35970093  0.56272574     0.15900
F929        F  0.92601532  0.42167540  0.65690881    -0.23500
H930        H  0.89066379  0.37509259  0.68950947     0.17700
C931        C  0.84388834  0.29350565  0.83702376    -0.27500
C932        C  0.84476127  0.32916868  0.83124691     0.06100
C933        C  0.82603933  0.34265725  0.80310023     0.25700
C934        C  0.80680017  0.32102332  0.78170287    -0.12000
C935        C  0.80588510  0.28547783  0.78759652    -0.26000
C936        C  0.82440469  0.27189802  0.81563878     0.36500
C937        C  0.86505821  0.35218092  0.85444506     0.06100
F938        F  0.82507977  0.37695742  0.79711487    -0.19800
H939        H  0.79157746  0.33224064  0.76106344     0.15900
F940        F  0.82334636  0.23776198  0.82249306    -0.23500
H941        H  0.85832985  0.28231027  0.85822033     0.17700
C942        C  0.86289962  0.34937131  0.89062743     0.25700
C943        C  0.88238989  0.37112392  0.91191754    -0.12000
C944        C  0.90388683  0.39652461  0.89767618    -0.26000
C945        C  0.90579864  0.39949665  0.86153661     0.36600
C946        C  0.88683266  0.37742186  0.84032818    -0.27700
F947        F  0.84132862  0.32617706  0.90544994    -0.19800
H948        H  0.88038305  0.36835168  0.93963172     0.15900
F949        F  0.92696623  0.42293758  0.84652511    -0.23500
H950        H  0.88957933  0.37979340  0.81264140     0.17700
C951        C  0.86336022  0.64770091  0.88840014    -0.27500
C952        C  0.85711907  0.63734681  0.85426049     0.06100
C953        C  0.86999808  0.60535209  0.84351405     0.25700
C954        C  0.88941600  0.58490263  0.86615666    -0.12000
C955        C  0.89679677  0.59588162  0.89989417    -0.26000
C956        C  0.88291890  0.62731852  0.91099707     0.36500
C957        C  0.83853783  0.66077097  0.82994494     0.06100
F958        F  0.86548882  0.59456367  0.81059977    -0.19800
H959        H  0.89973675  0.56089570  0.85676043     0.15900
F960        F  0.88872309  0.63880259  0.94345188    -0.23500
H961        H  0.85334685  0.67194383  0.89752894     0.17700
C962        C  0.81142657  0.64893131  0.80879152     0.25700
C963        C  0.79407548  0.67161534  0.78670857    -0.12000
C964        C  0.80241575  0.70664471  0.78607601    -0.26000
C965        C  0.82945116  0.71856808  0.80688877     0.36600
C966        C  0.84755346  0.69576492  0.82833160    -0.27700
F967        F  0.80036628  0.61594378  0.81077981    -0.19800
H968        H  0.77293799  0.66210786  0.77112334     0.15900
F969        F  0.83803610  0.75230048  0.80675545    -0.23500
H970        H  0.86847553  0.70556134  0.84406262     0.17700
C971        C  0.87306002  0.65560727  0.61192386    -0.27500
C972        C  0.87395373  0.65215082  0.64791805     0.06100
C973        C  0.89322503  0.62522058  0.66258753     0.25700
C974        C  0.91057564  0.60173765  0.64137912    -0.12000
C975        C  0.90935811  0.60501271  0.60524816    -0.26000
C976        C  0.89071351  0.63256484  0.59078514     0.36500
C977        C  0.85089002  0.67385671  0.66921211     0.06100
F978        F  0.89407780  0.62081604  0.69728991    -0.19800
H979        H  0.92503468  0.58104403  0.65322859     0.15900
F980        F  0.88866429  0.63678154  0.55611115    -0.23500
H981        H  0.85801176  0.67593542  0.60012739     0.17700
C982        C  0.86334827  0.69602299  0.69493407     0.25700
C983        C  0.84012641  0.71570065  0.71453570    -0.12000
C984        C  0.80417002  0.71344850  0.70894872    -0.26000
C985        C  0.79224012  0.69144588  0.68266342     0.36600
C986        C  0.81530068  0.67213139  0.66323757    -0.27700
F987        F  0.89782752  0.69906738  0.70066164    -0.19800
H988        H  0.85021974  0.73268868  0.73412311     0.15900
F989        F  0.75821400  0.68727633  0.67601444    -0.23500
H990        H  0.80517670  0.65512746  0.64363036     0.17700
C991        C  0.65746669  0.12365899  0.88791459    -0.27500
C992        C  0.65097261  0.12634161  0.85246818     0.06100
C993        C  0.62193278  0.10988648  0.83842269     0.25700
C994        C  0.59944167  0.09140570  0.85983192    -0.12000
C995        C  0.60584909  0.08874040  0.89545400    -0.26000
C996        C  0.63536259  0.10485432  0.90924377     0.36500
C997        C  0.67316426  0.14870251  0.83110600     0.06100
F998        F  0.61484330  0.11251632  0.80424657    -0.19800
H999        H  0.57711787  0.07902424  0.84848925     0.15900
F1000       F  0.64269501  0.10294740  0.94340960    -0.23500
H1001       H  0.67965318  0.13644291  0.89910922     0.17700
C1002       C  0.67311910  0.18409564  0.83687549     0.25700
C1003       C  0.69440301  0.20556441  0.81754367    -0.12000
C1004       C  0.71644953  0.19239392  0.79196192    -0.26000
C1005       C  0.71701949  0.15662907  0.78674693     0.36600
C1006       C  0.69518100  0.13504142  0.80593249    -0.27700
F1007       F  0.65193225  0.19800200  0.86092872    -0.19800
H1008       H  0.69291721  0.23270224  0.82249861     0.15900
F1009       F  0.73904576  0.14248952  0.76367370    -0.23500
H1010       H  0.69585544  0.10763408  0.80160408     0.17700
C1011       C  0.70748717  0.15036010  0.66893389    -0.27500
C1012       C  0.67118849  0.15345237  0.67002727     0.06100
C1013       C  0.65660868  0.17653751  0.69385004     0.25700
C1014       C  0.67774727  0.19559985  0.71589621    -0.12000
C1015       C  0.71383437  0.19290600  0.71422095    -0.26000
C1016       C  0.72862813  0.17035616  0.69036843     0.36500
C1017       C  0.64858653  0.13283033  0.64654824     0.06100
F1018       F  0.62196110  0.18192228  0.69486034    -0.19800
H1019       H  0.66594920  0.21353361  0.73353788     0.15900
F1020       F  0.76351069  0.16773290  0.68784983    -0.23500
H1021       H  0.71957711  0.13247984  0.65143191     0.17700
C1022       C  0.65660601  0.12840010  0.61137737     0.25700
C1023       C  0.63453702  0.10952856  0.58981274    -0.12000
C1024       C  0.60380575  0.09503790  0.60258299    -0.26000
C1025       C  0.59583441  0.09948038  0.63769122     0.36600
C1026       C  0.61815059  0.11771945  0.65930515    -0.27700
F1027       F  0.68527914  0.14297826  0.59751622    -0.19800
H1028       H  0.64141917  0.10646047  0.56296009     0.15900
F1029       F  0.56681979  0.08559521  0.65155954    -0.23500
H1030       H  0.61164372  0.11972784  0.68634648     0.17700
C1031       C  0.33854396  0.12376542  0.60547455    -0.27500
C1032       C  0.34497557  0.12855388  0.64068404     0.06100
C1033       C  0.37542801  0.11526672  0.65522790     0.25700
C1034       C  0.39914011  0.09747844  0.63471294    -0.12000
C1035       C  0.39274147  0.09246318  0.59939666    -0.26000
C1036       C  0.36198878  0.10572042  0.58499166     0.36500
C1037       C  0.32193689  0.15079801  0.66113389     0.06100
F1038       F  0.38270853  0.12049185  0.68902822    -0.19800
H1039       H  0.42243880  0.08748060  0.64653517     0.15900
F1040       F  0.35465741  0.10169907  0.55102862    -0.23500
H1041       H  0.31544567  0.13439447  0.59378261     0.17700
C1042       C  0.32132471  0.18598245  0.65430391     0.25700
C1043       C  0.30197032  0.20786538  0.67489366    -0.12000
C1044       C  0.28269341  0.19546980  0.70319128    -0.26000
C1045       C  0.28133819  0.15961027  0.70834051     0.36600
C1046       C  0.30137142  0.13758246  0.68786309    -0.27700
F1047       F  0.34072830  0.19948217  0.62845628    -0.19800
H1048       H  0.30347995  0.23469061  0.66871892     0.15900
F1049       F  0.26060035  0.14576947  0.73287582    -0.23500
H1050       H  0.30090386  0.11025723  0.69285901     0.17700
C1051       C  0.34450741  0.17151892  0.79863381    -0.27500
C1052       C  0.33086479  0.15190344  0.82590338     0.06100
C1053       C  0.29469118  0.15233085  0.83093604     0.25700
C1054       C  0.27317136  0.17254495  0.80982258    -0.12000
C1055       C  0.28693998  0.19198809  0.78260824    -0.26000
C1056       C  0.32296975  0.19109990  0.77718138     0.36500
C1057       C  0.35452695  0.13190755  0.84927216     0.06100
F1058       F  0.27999646  0.13298796  0.85609265    -0.19800
H1059       H  0.24564884  0.17318072  0.81483110     0.15900
F1060       F  0.33769375  0.21016770  0.75187205    -0.23500
H1061       H  0.37213869  0.17251632  0.79440920     0.17700
C1062       C  0.38228789  0.11252866  0.83606369     0.25700
C1063       C  0.40422963  0.09405651  0.85824424    -0.12000
C1064       C  0.39889603  0.09389550  0.89409505    -0.26000
C1065       C  0.37151042  0.11358472  0.90738216     0.36600
C1066       C  0.34986227  0.13248356  0.88525825    -0.27700
F1067       F  0.38758763  0.11035407  0.80157626    -0.19800
H1068       H  0.42487946  0.07898356  0.84716076     0.15900
F1069       F  0.36577299  0.11489825  0.94183436    -0.23500
H1070       H  0.32948473  0.14784287  0.89641747     0.17700
C1071       C  0.64881139  0.86284171  0.61327133    -0.27500
C1072       C  0.64787236  0.86701771  0.64926989     0.06100
C1073       C  0.62512503  0.89156779  0.66311344     0.25700
C1074       C  0.60302749  0.91036353  0.64155347    -0.12000
C1075       C  0.60389057  0.90604350  0.60566646    -0.26000
C1076       C  0.62732843  0.88235415  0.59163130     0.36500
C1077       C  0.67049716  0.84571825  0.67208708     0.06100
F1078       F  0.62505689  0.89831002  0.69739656    -0.19800
H1079       H  0.58589875  0.92912834  0.65291242     0.15900
F1080       F  0.62900521  0.87755754  0.55705304    -0.23500
H1081       H  0.66600004  0.84416450  0.60186833     0.17700
C1082       C  0.65705505  0.82927571  0.70155885     0.25700
C1083       C  0.67833921  0.80895168  0.72245477    -0.12000
C1084       C  0.71357215  0.80470122  0.71477325    -0.26000
C1085       C  0.72682926  0.82022473  0.68485233     0.36600
C1086       C  0.70557405  0.84071543  0.66391115    -0.27700
F1087       F  0.62291037  0.83134831  0.70926297    -0.19800
H1088       H  0.66686415  0.79542859  0.74399914     0.15900
F1089       F  0.76023224  0.81505702  0.67557391    -0.23500
H1090       H  0.71654757  0.85265085  0.64118215     0.17700
C1091       C  0.69814075  0.85898825  0.81203291    -0.27500
C1092       C  0.67452927  0.84462172  0.83556278     0.06100
C1093       C  0.67263015  0.80889337  0.83872362     0.25700
C1094       C  0.69318272  0.78789614  0.81821650    -0.12000
C1095       C  0.71622282  0.80180152  0.79376802    -0.26000
C1096       C  0.71880641  0.83779639  0.79119174     0.36500
C1097       C  0.65112522  0.86636556  0.85645775     0.06100
F1098       F  0.65073188  0.79421911  0.86178166    -0.19800
H1099       H  0.69010186  0.76053725  0.82107212     0.15900
F1100       F  0.74104767  0.85243393  0.76848613    -0.23500
H1101       H  0.70006208  0.88657087  0.80937098     0.17700
C1102       C  0.66412644  0.88763912  0.88255562     0.25700
C1103       C  0.64141915  0.90566183  0.90401135    -0.12000
C1104       C  0.60536971  0.90331665  0.89942424    -0.26000
C1105       C  0.59244648  0.88233762  0.87295771     0.36600
C1106       C  0.61515335  0.86383445  0.85195425    -0.27700
F1107       F  0.69871519  0.89024351  0.88788703    -0.19800
H1108       H  0.65210394  0.92182325  0.92400556     0.15900
F1109       F  0.55788252  0.87907809  0.86785804    -0.23500
H1110       H  0.60466157  0.84729415  0.83216111     0.17700
C1111       C  0.30111719  0.85854493  0.81411654    -0.27500
C1112       C  0.32190197  0.84527608  0.84077897     0.06100
C1113       C  0.32171503  0.80989345  0.84692456     0.25700
C1114       C  0.30265992  0.78815132  0.82589466    -0.12000
C1115       C  0.28364453  0.80063347  0.79743008    -0.26000
C1116       C  0.28170622  0.83654634  0.79294929     0.36500
C1117       C  0.34486977  0.86763313  0.86155326     0.06100
F1118       F  0.34151522  0.79589045  0.87226714    -0.19800
H1119       H  0.30445229  0.76131303  0.83186347     0.15900
F1120       F  0.26091119  0.85051895  0.76848098    -0.23500
H1121       H  0.30000608  0.88593970  0.80964856     0.17700
C1122       C  0.36922003  0.88919027  0.84552473     0.25700
C1123       C  0.39349780  0.90707154  0.86533959    -0.12000
C1124       C  0.39354627  0.90413816  0.90141815    -0.26000
C1125       C  0.36883639  0.88306034  0.91747682     0.36600
C1126       C  0.34479694  0.86500176  0.89768662    -0.27700
F1127       F  0.37027470  0.89208514  0.81068199    -0.19800
H1128       H  0.41198238  0.92358101  0.85248630     0.15900
F1129       F  0.36841702  0.87929027  0.95227031    -0.23500
H1130       H  0.32626958  0.84857560  0.91059241     0.17700
C1131       C  0.38113438  0.88574100  0.66425557    -0.27500
C1132       C  0.35347986  0.86646322  0.65074666     0.06100
C1133       C  0.34854492  0.86681229  0.61465456     0.25700
C1134       C  0.37033529  0.88620646  0.59312050    -0.12000
C1135       C  0.39807540  0.90514941  0.60673637    -0.26000
C1136       C  0.40339803  0.90439679  0.64267374     0.36500
C1137       C  0.33033128  0.84604128  0.67432630     0.06100
F1138       F  0.32320540  0.84774759  0.59991677    -0.19800
H1139       H  0.36566677  0.88611717  0.56559512     0.15900
F1140       F  0.42953404  0.92250288  0.65727518    -0.23500
H1141       H  0.38535337  0.88686608  0.69180673     0.17700
C1142       C  0.34403040  0.82713934  0.70230280     0.25700
C1143       C  0.32236967  0.80763373  0.72369352    -0.12000
C1144       C  0.28654058  0.80593468  0.71773724    -0.26000
C1145       C  0.27272881  0.82466264  0.68994846     0.36600
C1146       C  0.29425992  0.84489454  0.66892480    -0.27700
F1147       F  0.37862644  0.82595264  0.70806165    -0.19800
H1148       H  0.33389450  0.79261348  0.74422429     0.15900
F1149       F  0.23839334  0.82305624  0.68289719    -0.23500
H1150       H  0.28260552  0.85954903  0.64821333     0.17700
C1151       C  0.35977360  0.67853596  0.81435644    -0.27500
C1152       C  0.35260432  0.64335962  0.81117888     0.06100
C1153       C  0.32622375  0.63273612  0.78865212     0.25700
C1154       C  0.30599788  0.65710125  0.77148460    -0.12000
C1155       C  0.31168798  0.69222840  0.77676985    -0.26000
C1156       C  0.33986762  0.70276184  0.79682473     0.36500
C1157       C  0.37117811  0.61851840  0.83337304     0.06100
F1158       F  0.31976895  0.59891007  0.78364261    -0.19800
H1159       H  0.28506746  0.64862178  0.75502690     0.15900
F1160       F  0.34892436  0.73626317  0.79856638    -0.23500
H1161       H  0.38028859  0.68737133  0.83114568     0.17700
C1162       C  0.40724569  0.62039780  0.83716889     0.25700
C1163       C  0.42380686  0.60117785  0.86265360    -0.12000
C1164       C  0.40482163  0.57955636  0.88462578    -0.26000
C1165       C  0.36907323  0.57580638  0.87930640     0.36600
C1166       C  0.35241137  0.59532481  0.85393097    -0.27700
F1167       F  0.42634389  0.64162537  0.81694095    -0.19800
H1168       H  0.45146957  0.60406412  0.86591362     0.15900
F1169       F  0.34985545  0.55525012  0.90008250    -0.23500
H1170       H  0.32455126  0.59373705  0.85167354     0.17700
C1171       C  0.36218027  0.69022155  0.68122283    -0.27500
C1172       C  0.34702491  0.66699232  0.65829576     0.06100
C1173       C  0.31084714  0.66470665  0.65577171     0.25700
C1174       C  0.29017058  0.68443333  0.67723560    -0.12000
C1175       C  0.30548121  0.70624662  0.70133020    -0.26000
C1176       C  0.34152157  0.70999158  0.70250765     0.36500
C1177       C  0.36915637  0.64426202  0.63818915     0.06100
F1178       F  0.29564983  0.64308957  0.63296569    -0.19800
H1179       H  0.26232495  0.68168901  0.67602638     0.15900
F1180       F  0.35671391  0.73209236  0.72478311    -0.23500
H1181       H  0.39003913  0.69224512  0.68339358     0.17700
C1182       C  0.39626551  0.65768997  0.61834055     0.25700
C1183       C  0.41683677  0.63579770  0.59908350    -0.12000
C1184       C  0.41031137  0.60041296  0.59911183    -0.26000
C1185       C  0.38387830  0.58687523  0.61985979     0.36600
C1186       C  0.36352540  0.60877501  0.63938633    -0.27700
F1187       F  0.40194368  0.69201070  0.61651494    -0.19800
H1188       H  0.43696688  0.64673495  0.58308015     0.15900
F1189       F  0.37749444  0.55265428  0.62105622    -0.23500
H1190       H  0.34321971  0.59808390  0.65535201     0.17700
C1191       C  0.63316015  0.59439735  0.84168987    -0.27500
C1192       C  0.62447289  0.62917392  0.83800815     0.06100
C1193       C  0.59390621  0.64159421  0.85280401     0.25700
C1194       C  0.57366641  0.62005646  0.87293823    -0.12000
C1195       C  0.58400393  0.58612383  0.87931992    -0.26000
C1196       C  0.61311198  0.57289625  0.86236754     0.36500
C1197       C  0.64835767  0.65293588  0.82078427     0.06100
F1198       F  0.58504063  0.67518934  0.85018018    -0.19800
H1199       H  0.55120889  0.63080363  0.88553182     0.15900
F1200       F  0.62300749  0.53979177  0.86690918    -0.23500
H1201       H  0.65619758  0.58427382  0.82960475     0.17700
C1202       C  0.68339509  0.65407185  0.83044151     0.25700
C1203       C  0.70580472  0.67683215  0.81412251    -0.12000
C1204       C  0.69358251  0.69848224  0.78799406    -0.26000
C1205       C  0.65805359  0.69924049  0.78029961     0.36600
C1206       C  0.63581207  0.67600003  0.79598958    -0.27700
F1207       F  0.69582123  0.63351375  0.85590971    -0.19800
H1208       H  0.73281117  0.67690194  0.82135435     0.15900
F1209       F  0.64490838  0.72229121  0.75749097    -0.23500
H1210       H  0.60876123  0.67595432  0.78870529     0.17700
C1211       C  0.67356996  0.64211297  0.69560166    -0.27500
C1212       C  0.65324010  0.65676103  0.66951906     0.06100
C1213       C  0.65438571  0.69242752  0.66394670     0.25700
C1214       C  0.67571832  0.71298216  0.68425954    -0.12000
C1215       C  0.69592102  0.69823293  0.71034810    -0.26000
C1216       C  0.69517252  0.66251975  0.71551045     0.36500
C1217       C  0.63256234  0.63445883  0.64692857     0.06100
F1218       F  0.63573248  0.70721022  0.63822832    -0.19800
H1219       H  0.67631616  0.74041728  0.67981788     0.15900
F1220       F  0.71598335  0.64722675  0.73916729    -0.23500
H1221       H  0.67305687  0.61471061  0.70025166     0.17700
C1222       C  0.64789147  0.60598702  0.63098597     0.25700
C1223       C  0.62905125  0.58647756  0.60763064    -0.12000
C1224       C  0.59480638  0.59517423  0.59953879    -0.26000
C1225       C  0.57895085  0.62276397  0.61657192     0.36600
C1226       C  0.59778371  0.64218819  0.64017247    -0.27700
F1227       F  0.68160688  0.59803331  0.63661092    -0.19800
H1228       H  0.64177652  0.56529999  0.59490761     0.15900
F1229       F  0.54550456  0.63124644  0.61021342    -0.23500
H1230       H  0.58537552  0.66358262  0.65284868     0.17700
C1231       C  0.59996424  0.34451367  0.86820353    -0.27500
C1232       C  0.62828021  0.35904146  0.85091567     0.06100
C1233       C  0.63384768  0.39458199  0.85276466     0.25700
C1234       C  0.61329308  0.41464579  0.87409769    -0.12000
C1235       C  0.58654626  0.39969418  0.89337753    -0.26000
C1236       C  0.57897054  0.36469250  0.88907833     0.36500
C1237       C  0.65216141  0.33689739  0.83156456     0.06100
F1238       F  0.65938272  0.40983030  0.83426854    -0.19800
H1239       H  0.61898992  0.44174750  0.87629310     0.15900
F1240       F  0.55254031  0.34951934  0.90633667    -0.23500
H1241       H  0.59489193  0.31724654  0.86659964     0.17700
C1242       C  0.68818611  0.33929032  0.83644535     0.25700
C1243       C  0.71046989  0.31881581  0.81720353    -0.12000
C1244       C  0.69706545  0.29592149  0.79295565    -0.26000
C1245       C  0.66112526  0.29213697  0.78944449     0.36600
C1246       C  0.63886508  0.31262781  0.80851629    -0.27700
F1247       F  0.70179466  0.36108096  0.86006000    -0.19800
H1248       H  0.73812136  0.32138320  0.82059411     0.15900
F1249       F  0.64759009  0.26846371  0.76772968    -0.23500
H1250       H  0.61124978  0.30992068  0.80489680     0.17700
C1251       C  0.67961378  0.35853480  0.70132259    -0.27500
C1252       C  0.65753192  0.34584709  0.67573022     0.06100
C1253       C  0.65587707  0.31032692  0.66972596     0.25700
C1254       C  0.67572712  0.28788954  0.68952153    -0.12000
C1255       C  0.69724295  0.30054197  0.71552195    -0.26000
C1256       C  0.69949765  0.33609396  0.72104847     0.36500
C1257       C  0.63724134  0.36980415  0.65450990     0.06100
F1258       F  0.63596211  0.29744827  0.64400249    -0.19800
H1259       H  0.67445872  0.26067030  0.68440128     0.15900
F1260       F  0.72198177  0.34918619  0.74444374    -0.23500
H1261       H  0.68157311  0.38586110  0.70585859     0.17700
C1262       C  0.60157624  0.36494029  0.65026492     0.25700
C1263       C  0.58317130  0.38567911  0.62754595    -0.12000
C1264       C  0.59995745  0.41169121  0.60886884    -0.26000
C1265       C  0.63528000  0.41795777  0.61468130     0.36600
C1266       C  0.65376805  0.39701376  0.63739300    -0.27700
F1267       F  0.58463199  0.33984935  0.66775595    -0.19800
H1268       H  0.55584722  0.38075094  0.62392519     0.15900
F1269       F  0.65233022  0.44301671  0.59726774    -0.23500
H1270       H  0.68127161  0.40117679  0.64061462     0.17700
C1271       C  0.35508455  0.38878016  0.86882808    -0.27500
C1272       C  0.36351488  0.35407740  0.86496630     0.06100
C1273       C  0.39198935  0.34027364  0.88270703     0.25700
C1274       C  0.41151524  0.36103075  0.90428512    -0.12000
C1275       C  0.40258269  0.39555868  0.90876259    -0.26000
C1276       C  0.37423553  0.40940518  0.89083025     0.36500
C1277       C  0.34271453  0.33261212  0.84204665     0.06100
F1278       F  0.40031002  0.30657279  0.87996284    -0.19800
H1279       H  0.43311432  0.34984433  0.91811087     0.15900
F1280       F  0.36502516  0.44278735  0.89439025    -0.23500
H1281       H  0.33365946  0.39994149  0.85470760     0.17700
C1282       C  0.30644563  0.33278910  0.84415203     0.25700
C1283       C  0.28705572  0.31323371  0.82134119    -0.12000
C1284       C  0.30360482  0.29343957  0.79635604    -0.26000
C1285       C  0.33983328  0.29233714  0.79500044     0.36600
C1286       C  0.35920994  0.31218933  0.81745751    -0.27700
F1287       F  0.28983180  0.35168936  0.86830221    -0.19800
H1288       H  0.25911748  0.31407507  0.82273320     0.15900
F1289       F  0.35655531  0.27211953  0.77215350    -0.23500
H1290       H  0.38712683  0.31194778  0.81534871     0.17700
C1291       C  0.41281728  0.36799974  0.66290292    -0.27500
C1292       C  0.37691208  0.37241751  0.66633457     0.06100
C1293       C  0.36042292  0.39834321  0.64705168     0.25700
C1294       C  0.37920496  0.41831778  0.62391554    -0.12000
C1295       C  0.41451710  0.41230312  0.61873798    -0.26000
C1296       C  0.43148501  0.38747140  0.63899650     0.36500
C1297       C  0.35608686  0.34845203  0.68757767     0.06100
F1298       F  0.32566770  0.40283588  0.64859879    -0.19800
H1299       H  0.36553289  0.43716369  0.60850593     0.15900
F1300       F  0.46582847  0.38142734  0.63516532    -0.23500
H1301       H  0.42627451  0.34880746  0.67805134     0.17700
C1302       C  0.36081258  0.31273009  0.68501099     0.25700
C1303       C  0.33789381  0.29037503  0.70132984    -0.12000
C1304       C  0.30971560  0.30310594  0.71985534    -0.26000
C1305       C  0.30585859  0.33857996  0.72394112     0.36600
C1306       C  0.32910886  0.36103641  0.70821794    -0.27700
F1307       F  0.38661474  0.29928462  0.66563976    -0.19800
H1308       H  0.34253550  0.26311450  0.69992844     0.15900
F1309       F  0.27920369  0.35144832  0.74254399    -0.23500
H1310       H  0.32550878  0.38836214  0.71147665     0.17700
loop_ 
_geom_bond_atom_site_label_1 
_geom_bond_atom_site_label_2 
_geom_bond_distance 
_geom_bond_site_symmetry_2 
_ccdc_geom_bond_type 
N1            N2   1.321       .  A
N1            N7   1.313       .  A
N1         Mn685   2.195   1_554  S
N2            C9   1.354       .  A
N3            N5   1.314       .  A
N3            N4   1.319       .  A
N3         Mn674   2.193       .  S
N4           C10   1.353       .  A
N5            N6   1.316       .  A
N5          Mn30   2.180       .  S
N6           C10   1.351       .  A
N7            N8   1.314       .  A
N7          Mn19   2.176       .  S
N8            C9   1.349       .  A
C9          C609   1.469       .  S
C10         C580   1.469       .  S
N11          N17   1.313       .  A
N11          N12   1.314       .  A
N11        Mn696   2.168       .  S
N12          C20   1.349       .  A
N13          N14   1.319       .  A
N13          N15   1.314       .  A
N13         Mn19   2.190       .  S
N14          C21   1.353       .  A
N15          N16   1.318       .  A
N15         Mn41   2.194       .  S
N16          C21   1.353       .  A
N17          N18   1.315       .  A
N17        Mn674   2.175       .  S
N18          C20   1.350       .  A
Mn19        N658   2.190   1_554  S
Mn19        N672   2.176   1_554  S
Mn19        Cl43   2.525   1_554  S
C20         C620   1.458       .  S
C21         C640   1.473       .  S
N22          N23   1.319       .  A
N22          N28   1.312       .  A
N22         Mn30   2.187       .  S
N23          C31   1.353       .  A
N24          N26   1.314       .  A
N24          N25   1.318       .  A
N24        Mn697   2.186   1_554  S
N25          C32   1.352       .  A
N26          N27   1.317       .  A
N26        Mn685   2.186   1_554  S
N27          C32   1.352       .  A
N28          N29   1.313       .  A
N28         Mn42   2.169       .  S
N29          C31   1.349       .  A
Mn30        N656   2.193       .  S
Mn30        N681   2.184       .  S
Mn30       Cl698   2.542       .  S
C31         C540   1.464       .  S
C32         C569   1.469       .  S
N33          N34   1.314       .  A
N33          N39   1.312       .  A
N33         Mn41   2.166       .  S
N34          C44   1.349       .  A
N35          N36   1.317       .  A
N35          N37   1.314       .  A
N35         Mn42   2.188       .  S
N36          C45   1.351       .  A
N37          N38   1.322       .  A
N37        Mn696   2.205       .  S
N38          C45   1.355       .  A
N39          N40   1.316       .  A
N39        Mn697   2.175   1_554  S
N40          C44   1.351       .  A
Mn41        N666   2.168   1_554  S
Mn41        N692   2.207   1_554  S
Mn41        Cl43   2.538   1_554  S
Mn42        N679   2.187       .  S
Mn42        N694   2.172       .  S
Mn42       Cl698   2.523       .  S
Cl43       Mn685   2.543       .  S
Cl43       Mn697   2.524       .  S
C44         C529   1.458       .  S
C45         C509   1.475       .  S
N46          N47   1.325       .  A
N46          N52   1.317       .  A
N46         Mn75   2.226   1_554  S
N47          C54   1.357       .  A
N48          N50   1.317       .  A
N48          N49   1.323       .  A
N48         Mn64   2.214       .  S
N49          C55   1.355       .  A
N50          N51   1.319       .  A
N50         Mn75   2.197   1_544  S
N51          C55   1.351       .  A
N52          N53   1.322       .  A
N52         Mn64   2.210   1_565  S
N53          C54   1.354       .  A
C54         C480   1.492       .  S
C55         C380   1.484       .  S
N56          N62   1.317       .  A
N56          N57   1.323       .  A
N56         Mn86   2.211   1_545  S
N57          C65   1.354       .  A
N58          N59   1.322       .  A
N58          N60   1.317       .  A
N58         Mn64   2.214   1_565  S
N59          C66   1.354       .  A
N60          N61   1.322       .  A
N60         Mn86   2.210       .  S
N61          C66   1.353       .  A
N62          N63   1.320       .  A
N62         Mn64   2.206       .  S
N63          C65   1.353       .  A
Mn64        Cl88   2.560   1_544  S
C65         C369   1.486       .  S
C66         C420   1.483       .  S
N67          N68   1.323       .  A
N67          N73   1.318       .  A
N67        Mn730   2.223   1_545  S
N68          C76   1.355       .  A
N69          N71   1.317       .  A
N69          N70   1.322       .  A
N69         Mn87   2.209       .  S
N70          C77   1.354       .  A
N71          N72   1.319       .  A
N71        Mn730   2.195       .  S
N72          C77   1.351       .  A
N73          N74   1.324       .  A
N73         Mn87   2.219   1_545  S
N74          C76   1.356       .  A
Mn75        N722   2.229   1_565  S
Mn75        N726   2.193       .  S
Mn75        Cl88   2.541       .  S
C76         C409   1.492       .  S
C77         C469   1.481       .  S
N78          N79   1.322       .  A
N78          N84   1.318       .  A
N78        Mn741   2.211       .  S
N79          C89   1.353       .  A
N80          N81   1.323       .  A
N80          N82   1.318       .  A
N80         Mn87   2.212   1_545  S
N81          C90   1.354       .  A
N82          N83   1.321       .  A
N82        Mn741   2.210   1_545  S
N83          C90   1.354       .  A
N84          N85   1.322       .  A
N84         Mn87   2.215       .  S
N85          C89   1.354       .  A
Mn86        N733   2.206   1_554  S
Mn86        N737   2.202   1_564  S
Mn86        Cl88   2.544   1_554  S
Mn87       Cl743   2.559       .  S
Cl88       Mn742   2.563       .  S
C89         C449   1.485       .  S
C90         C340   1.486       .  S
N91          N92   1.320       .  A
N91          N97   1.318       .  A
N91        Mn120   2.205       .  S
N92          C99   1.352       .  A
N93          N95   1.319       .  A
N93          N94   1.325       .  A
N93        Mn109   2.225       .  S
N94         C100   1.355       .  A
N95          N96   1.323       .  A
N95        Mn120   2.219   1_455  S
N96         C100   1.353       .  A
N97          N98   1.325       .  A
N97        Mn109   2.221   1_655  S
N98          C99   1.355       .  A
C99         C320   1.486       .  S
C100        C180   1.485       .  S
N101        N107   1.318       .  A
N101        N102   1.321       .  A
N101       Mn131   2.206       .  S
N102        C110   1.352       .  A
N103        N104   1.324       .  A
N103        N105   1.319       .  A
N103       Mn109   2.222   1_655  S
N104        C111   1.356       .  A
N105        N106   1.319       .  A
N105       Mn131   2.206   1_655  S
N106        C111   1.352       .  A
N107        N108   1.322       .  A
N107       Mn109   2.213       .  S
N108        C110   1.354       .  A
Mn109      Cl133   2.560       .  S
C110        C249   1.483       .  S
C111        C269   1.486       .  S
N112        N113   1.319       .  A
N112        N118   1.317       .  A
N112       Mn775   2.201   1_455  S
N113        C121   1.352       .  A
N114        N116   1.317       .  A
N114        N115   1.321       .  A
N114       Mn132   2.208       .  S
N115        C122   1.353       .  A
N116        N117   1.323       .  A
N116       Mn775   2.218       .  S
N117        C122   1.356       .  A
N118        N119   1.323       .  A
N118       Mn132   2.214   1_455  S
N119        C121   1.356       .  A
Mn120       N767   2.203   1_654  S
Mn120       N771   2.225   1_554  S
Mn120      Cl133   2.552   1_655  S
C121        C209   1.485       .  S
C122        C300   1.489       .  S
N123        N124   1.325       .  A
N123        N129   1.317       .  A
N123       Mn786   2.220       .  S
N124        C134   1.357       .  A
N125        N126   1.325       .  A
N125        N127   1.317       .  A
N125       Mn132   2.218   1_455  S
N126        C135   1.355       .  A
N127        N128   1.323       .  A
N127       Mn786   2.219   1_455  S
N128        C135   1.354       .  A
N129        N130   1.321       .  A
N129       Mn132   2.214       .  S
N130        C134   1.354       .  A
Mn131       N778   2.215   1_454  S
Mn131       N782   2.217   1_554  S
Mn131      Cl133   2.552       .  S
Mn132      Cl788   2.557       .  S
Cl133      Mn787   2.554   1_454  S
C134        C289   1.490       .  S
C135        C229   1.487       .  S
C136        H137   1.106       .  S
C136        C142   1.544       .  S
C136        C141   1.535       .  S
C136        C140   1.534       .  S
C138        H139   1.111       .  S
C138        C144   1.548       .  S
C138        C143   1.527       .  S
C138        C145   1.548       .  S
C140        C143   1.367       .  D
C140        C649   1.476       .  S
C141        C144   1.380       .  D
C141        C240   1.493       .  S
C142        C145   1.388       .  D
C142        C389   1.510       .  S
C143        C629   1.463       .  S
C144        C220   1.508       .  S
C145        C400   1.501       .  S
C146        H147   1.110       .  S
C146        C152   1.541       .  S
C146        C151   1.534       .  S
C146        C150   1.534       .  S
C148        H149   1.112       .  S
C148        C154   1.545       .  S
C148        C153   1.530       .  S
C148        C155   1.544       .  S
C150        C153   1.367       .  D
C150        C600   1.471       .  S
C151        C154   1.378       .  D
C151        C360   1.484       .  S
C152        C155   1.385       .  D
C152        C260   1.507       .  S
C153        C589   1.471       .  S
C154        C349   1.503       .  S
C155        C280   1.493       .  S
C156        H157   1.112       .  S
C156        C162   1.547       .  S
C156        C161   1.546       .  S
C156        C160   1.525       .  S
C158        H159   1.105       .  S
C158        C164   1.547       .  S
C158        C163   1.537       .  S
C158        C165   1.536       .  S
C160        C163   1.364       .  D
C160        C520   1.460       .  S
C161        C164   1.388       .  D
C161        C489   1.501       .  S
C162        C165   1.381       .  D
C162        C189   1.500       .  S
C163        C500   1.480       .  S
C164        C460   1.508       .  S
C165        C200   1.501       .  S
C166        H167   1.111       .  S
C166        C172   1.545       .  S
C166        C171   1.546       .  S
C166        C170   1.534       .  S
C168        H169   1.112       .  S
C168        C174   1.536       .  S
C168        C173   1.531       .  S
C168        C175   1.540       .  S
C170        C173   1.371       .  D
C170        C560   1.477       .  S
C171        C174   1.376       .  D
C171        C329   1.504       .  S
C172        C175   1.384       .  D
C172        C429   1.493       .  S
C173        C549   1.472       .  S
C174        C309   1.485       .  S
C175        C440   1.502       .  S
C176        C177   1.409       .  A
C176        C181   1.405       .  A
C176        H186   1.083       .  S
C177        C182   1.504       .  S
C177        C178   1.415       .  A
C178        C179   1.404       .  A
C178        F183   1.357       .  S
C179        C180   1.401       .  A
C179        H184   1.083       .  S
C180        C181   1.407       .  A
C181        F185   1.358       .  S
C182        C187   1.413       .  A
C182        C191   1.406       .  A
C187        C188   1.408       .  A
C187        F192   1.357       .  S
C188        C189   1.405       .  A
C188        H193   1.083       .  S
C189        C190   1.410       .  A
C190        C191   1.399       .  A
C190        F194   1.356       .  S
C191        H195   1.082       .  S
C196        C197   1.395       .  A
C196        C201   1.392       .  A
C196        H206   1.084       .  S
C197        C202   1.478       .  S
C197        C198   1.406       .  A
C198        C199   1.406       .  A
C198        F203   1.357       .  S
C199        C200   1.407       .  A
C199        H204   1.083       .  S
C200        C201   1.414       .  A
C201        F205   1.351       .  S
C202        C207   1.405       .  A
C202        C211   1.400       .  A
C207        C208   1.400       .  A
C207        F212   1.357       .  S
C208        C209   1.406       .  A
C208        H213   1.083       .  S
C209        C210   1.412       .  A
C210        C211   1.400       .  A
C210        F214   1.357       .  S
C211        H215   1.083       .  S
C216        C217   1.411       .  A
C216        C221   1.406       .  A
C216        H226   1.082       .  S
C217        C222   1.508       .  S
C217        C218   1.411       .  A
C218        C219   1.404       .  A
C218        F223   1.357       .  S
C219        C220   1.411       .  A
C219        H224   1.081       .  S
C220        C221   1.406       .  A
C221        F225   1.357       .  S
C222        C227   1.413       .  A
C222        C231   1.412       .  A
C227        C228   1.404       .  A
C227        F232   1.357       .  S
C228        C229   1.404       .  A
C228        H233   1.083       .  S
C229        C230   1.405       .  A
C230        C231   1.407       .  A
C230        F234   1.357       .  S
C231        H235   1.082       .  S
C236        C237   1.406       .  A
C236        C241   1.406       .  A
C236        H246   1.083       .  S
C237        C242   1.478       .  S
C237        C238   1.400       .  A
C238        C239   1.392       .  A
C238        F243   1.358       .  S
C239        C240   1.407       .  A
C239        H244   1.081       .  S
C240        C241   1.407       .  A
C241        F245   1.357       .  S
C242        C247   1.403       .  A
C242        C251   1.403       .  A
C247        C248   1.401       .  A
C247        F252   1.357       .  S
C248        C249   1.408       .  A
C248        H253   1.083       .  S
C249        C250   1.408       .  A
C250        C251   1.399       .  A
C250        F254   1.357       .  S
C251        H255   1.084       .  S
C256        C257   1.395       .  A
C256        C261   1.391       .  A
C256        H266   1.084       .  S
C257        C262   1.481       .  S
C257        C258   1.406       .  A
C258        C259   1.406       .  A
C258        F263   1.357       .  S
C259        C260   1.410       .  A
C259        H264   1.083       .  S
C260        C261   1.417       .  A
C261        F265   1.351       .  S
C262        C267   1.404       .  A
C262        C271   1.403       .  A
C267        C268   1.397       .  A
C267        F272   1.358       .  S
C268        C269   1.406       .  A
C268        H273   1.083       .  S
C269        C270   1.410       .  A
C270        C271   1.403       .  A
C270        F274   1.357       .  S
C271        H275   1.083       .  S
C276        C277   1.409       .  A
C276        C281   1.404       .  A
C276        H286   1.085       .  S
C277        C282   1.498       .  S
C277        C278   1.410       .  A
C278        C279   1.400       .  A
C278        F283   1.357       .  S
C279        C280   1.405       .  A
C279        H284   1.084       .  S
C280        C281   1.404       .  A
C281        F285   1.357       .  S
C282        C287   1.411       .  A
C282        C291   1.406       .  A
C287        C288   1.405       .  A
C287        F292   1.357       .  S
C288        C289   1.405       .  A
C288        H293   1.084       .  S
C289        C290   1.409       .  A
C290        C291   1.401       .  A
C290        F294   1.357       .  S
C291        H295   1.084       .  S
C296        C297   1.407       .  A
C296        C301   1.401       .  A
C296        H306   1.083       .  S
C297        C302   1.494       .  S
C297        C298   1.409       .  A
C298        C299   1.401       .  A
C298        F303   1.357       .  S
C299        C300   1.407       .  A
C299        H304   1.083       .  S
C300        C301   1.408       .  A
C301        F305   1.357       .  S
C302        C307   1.410       .  A
C302        C311   1.410       .  A
C307        C308   1.399       .  A
C307        F312   1.357       .  S
C308        C309   1.403       .  A
C308        H313   1.083       .  S
C309        C310   1.400       .  A
C310        C311   1.401       .  A
C310        F314   1.357       .  S
C311        H315   1.083       .  S
C316        C317   1.403       .  A
C316        C321   1.397       .  A
C316        H326   1.083       .  S
C317        C322   1.486       .  S
C317        C318   1.407       .  A
C318        C319   1.406       .  A
C318        F323   1.358       .  S
C319        C320   1.409       .  A
C319        H324   1.083       .  S
C320        C321   1.407       .  A
C321        F325   1.357       .  S
C322        C327   1.407       .  A
C322        C331   1.399       .  A
C327        C328   1.407       .  A
C327        F332   1.357       .  S
C328        C329   1.410       .  A
C328        H333   1.083       .  S
C329        C330   1.411       .  A
C330        C331   1.393       .  A
C330        F334   1.351       .  S
C331        H335   1.084       .  S
C336        C337   1.403       .  A
C336        C341   1.398       .  A
C336        H346   1.083       .  S
C337        C342   1.483       .  S
C337        C338   1.405       .  A
C338        C339   1.404       .  A
C338        F343   1.358       .  S
C339        C340   1.409       .  A
C339        H344   1.083       .  S
C340        C341   1.407       .  A
C341        F345   1.357       .  S
C342        C347   1.401       .  A
C342        C351   1.405       .  A
C347        C348   1.395       .  A
C347        F352   1.358       .  S
C348        C349   1.408       .  A
C348        H353   1.077       .  S
C349        C350   1.411       .  A
C350        C351   1.407       .  A
C350        F354   1.357       .  S
C351        H355   1.083       .  S
C356        C357   1.410       .  A
C356        C361   1.403       .  A
C356        H366   1.082       .  S
C357        C362   1.495       .  S
C357        C358   1.411       .  A
C358        C359   1.396       .  A
C358        F363   1.357       .  S
C359        C360   1.401       .  A
C359        H364   1.083       .  S
C360        C361   1.402       .  A
C361        F365   1.357       .  S
C362        C367   1.411       .  A
C362        C371   1.406       .  A
C367        C368   1.403       .  A
C367        F372   1.357       .  S
C368        C369   1.406       .  A
C368        H373   1.083       .  S
C369        C370   1.408       .  A
C370        C371   1.397       .  A
C370        F374   1.357       .  S
C371        H375   1.083       .  S
C376        C377   1.401       .  A
C376        C381   1.398       .  A
C376        H386   1.083       .  S
C377        C382   1.476       .  S
C377        C378   1.403       .  A
C378        C379   1.401       .  A
C378        F383   1.357       .  S
C379        C380   1.407       .  A
C379        H384   1.083       .  S
C380        C381   1.410       .  A
C381        F385   1.357       .  S
C382        C387   1.395       .  A
C382        C391   1.404       .  A
C387        C388   1.389       .  A
C387        F392   1.358       .  S
C388        C389   1.412       .  A
C388        H393   1.074       .  S
C389        C390   1.414       .  A
C390        C391   1.407       .  A
C390        F394   1.356       .  S
C391        H395   1.083       .  S
C396        C397   1.406       .  A
C396        C401   1.401       .  A
C396        H406   1.082       .  S
C397        C402   1.501       .  S
C397        C398   1.413       .  A
C398        C399   1.407       .  A
C398        F403   1.357       .  S
C399        C400   1.404       .  A
C399        H404   1.083       .  S
C400        C401   1.410       .  A
C401        F405   1.356       .  S
C402        C407   1.411       .  A
C402        C411   1.408       .  A
C407        C408   1.404       .  A
C407        F412   1.357       .  S
C408        C409   1.406       .  A
C408        H413   1.083       .  S
C409        C410   1.408       .  A
C410        C411   1.405       .  A
C410        F414   1.357       .  S
C411        H415   1.082       .  S
C416        C417   1.407       .  A
C416        C421   1.403       .  A
C416        H426   1.083       .  S
C417        C422   1.493       .  S
C417        C418   1.409       .  A
C418        C419   1.401       .  A
C418        F423   1.357       .  S
C419        C420   1.405       .  A
C419        H424   1.083       .  S
C420        C421   1.407       .  A
C421        F425   1.357       .  S
C422        C427   1.408       .  A
C422        C431   1.408       .  A
C427        C428   1.399       .  A
C427        F432   1.357       .  S
C428        C429   1.406       .  A
C428        H433   1.083       .  S
C429        C430   1.405       .  A
C430        C431   1.403       .  A
C430        F434   1.357       .  S
C431        H435   1.083       .  S
C436        C437   1.408       .  A
C436        C441   1.409       .  A
C436        H446   1.083       .  S
C437        C442   1.486       .  S
C437        C438   1.401       .  A
C438        C439   1.393       .  A
C438        F443   1.358       .  S
C439        C440   1.408       .  A
C439        H444   1.079       .  S
C440        C441   1.410       .  A
C441        F445   1.357       .  S
C442        C447   1.405       .  A
C442        C451   1.406       .  A
C447        C448   1.403       .  A
C447        F452   1.357       .  S
C448        C449   1.408       .  A
C448        H453   1.083       .  S
C449        C450   1.406       .  A
C450        C451   1.400       .  A
C450        F454   1.357       .  S
C451        H455   1.083       .  S
C456        C457   1.403       .  A
C456        C461   1.406       .  A
C456        H466   1.083       .  S
C457        C462   1.473       .  S
C457        C458   1.395       .  A
C458        C459   1.389       .  A
C458        F463   1.358       .  S
C459        C460   1.410       .  A
C459        H464   1.074       .  S
C460        C461   1.414       .  A
C461        F465   1.357       .  S
C462        C467   1.404       .  A
C462        C471   1.399       .  A
C467        C468   1.399       .  A
C467        F472   1.358       .  S
C468        C469   1.405       .  A
C468        H473   1.083       .  S
C469        C470   1.411       .  A
C470        C471   1.398       .  A
C470        F474   1.357       .  S
C471        H475   1.083       .  S
C476        C477   1.408       .  A
C476        C481   1.402       .  A
C476        H486   1.083       .  S
C477        C482   1.505       .  S
C477        C478   1.413       .  A
C478        C479   1.406       .  A
C478        F483   1.357       .  S
C479        C480   1.406       .  A
C479        H484   1.083       .  S
C480        C481   1.409       .  A
C481        F485   1.357       .  S
C482        C487   1.412       .  A
C482        C491   1.411       .  A
C487        C488   1.401       .  A
C487        F492   1.357       .  S
C488        C489   1.406       .  A
C488        H493   1.082       .  S
C489        C490   1.405       .  A
C490        C491   1.407       .  A
C490        F494   1.357       .  S
C491        H495   1.082       .  S
C496        C497   1.406       .  A
C496        C501   1.394       .  A
C496        H506   1.083       .  S
C497        C502   1.481       .  S
C497        C498   1.407       .  A
C498        C499   1.398       .  A
C498        F503   1.357       .  S
C499        C500   1.404       .  A
C499        H504   1.083       .  S
C500        C501   1.401       .  A
C501        F505   1.354       .  S
C502        C507   1.406       .  A
C502        C511   1.406       .  A
C507        C508   1.395       .  A
C507        F512   1.358       .  S
C508        C509   1.404       .  A
C508        H513   1.083       .  S
C509        C510   1.406       .  A
C510        C511   1.399       .  A
C510        F514   1.357       .  S
C511        H515   1.083       .  S
C516        C517   1.399       .  A
C516        C521   1.385       .  A
C516        H526   1.083       .  S
C517        C522   1.463       .  S
C517        C518   1.407       .  A
C518        C519   1.392       .  A
C518        F523   1.358       .  S
C519        C520   1.398       .  A
C519        H524   1.083       .  S
C520        C521   1.402       .  A
C521        F525   1.356       .  S
C522        C527   1.403       .  A
C522        C531   1.401       .  A
C527        C528   1.388       .  A
C527        F532   1.358       .  S
C528        C529   1.401       .  A
C528        H533   1.083       .  S
C529        C530   1.405       .  A
C530        C531   1.390       .  A
C530        F534   1.358       .  S
C531        H535   1.083       .  S
C536        C537   1.404       .  A
C536        C541   1.395       .  A
C536        H546   1.083       .  S
C537        C542   1.467       .  S
C537        C538   1.402       .  A
C538        C539   1.386       .  A
C538        F543   1.358       .  S
C539        C540   1.403       .  A
C539        H544   1.083       .  S
C540        C541   1.405       .  A
C541        F545   1.358       .  S
C542        C547   1.405       .  A
C542        C551   1.402       .  A
C547        C548   1.390       .  A
C547        F552   1.358       .  S
C548        C549   1.399       .  A
C548        H553   1.081       .  S
C549        C550   1.405       .  A
C550        C551   1.389       .  A
C550        F554   1.358       .  S
C551        H555   1.083       .  S
C556        C557   1.401       .  A
C556        C561   1.390       .  A
C556        H566   1.083       .  S
C557        C562   1.473       .  S
C557        C558   1.407       .  A
C558        C559   1.395       .  A
C558        F563   1.358       .  S
C559        C560   1.400       .  A
C559        H564   1.083       .  S
C560        C561   1.407       .  A
C561        F565   1.357       .  S
C562        C567   1.405       .  A
C562        C571   1.403       .  A
C567        C568   1.391       .  A
C567        F572   1.358       .  S
C568        C569   1.403       .  A
C568        H573   1.083       .  S
C569        C570   1.407       .  A
C570        C571   1.395       .  A
C570        F574   1.357       .  S
C571        H575   1.083       .  S
C576        C577   1.403       .  A
C576        C581   1.394       .  A
C576        H586   1.083       .  S
C577        C582   1.473       .  S
C577        C578   1.404       .  A
C578        C579   1.393       .  A
C578        F583   1.358       .  S
C579        C580   1.404       .  A
C579        H584   1.083       .  S
C580        C581   1.406       .  A
C581        F585   1.357       .  S
C582        C587   1.408       .  A
C582        C591   1.403       .  A
C587        C588   1.395       .  A
C587        F592   1.358       .  S
C588        C589   1.399       .  A
C588        H593   1.081       .  S
C589        C590   1.403       .  A
C590        C591   1.392       .  A
C590        F594   1.357       .  S
C591        H595   1.082       .  S
C596        C597   1.401       .  A
C596        C601   1.392       .  A
C596        H606   1.083       .  S
C597        C602   1.472       .  S
C597        C598   1.409       .  A
C598        C599   1.394       .  A
C598        F603   1.358       .  S
C599        C600   1.398       .  A
C599        H604   1.082       .  S
C600        C601   1.405       .  A
C601        F605   1.357       .  S
C602        C607   1.402       .  A
C602        C611   1.405       .  A
C607        C608   1.390       .  A
C607        F612   1.358       .  S
C608        C609   1.403       .  A
C608        H613   1.083       .  S
C609        C610   1.406       .  A
C610        C611   1.398       .  A
C610        F614   1.357       .  S
C611        H615   1.083       .  S
C616        C617   1.401       .  A
C616        C621   1.389       .  A
C616        H626   1.083       .  S
C617        C622   1.463       .  S
C617        C618   1.404       .  A
C618        C619   1.388       .  A
C618        F623   1.358       .  S
C619        C620   1.401       .  A
C619        H624   1.083       .  S
C620        C621   1.405       .  A
C621        F625   1.358       .  S
C622        C627   1.405       .  A
C622        C631   1.400       .  A
C627        C628   1.389       .  A
C627        F632   1.358       .  S
C628        C629   1.398       .  A
C628        H633   1.083       .  S
C629        C630   1.403       .  A
C630        C631   1.386       .  A
C630        F634   1.355       .  S
C631        H635   1.083       .  S
C636        C637   1.407       .  A
C636        C641   1.398       .  A
C636        H646   1.083       .  S
C637        C642   1.484       .  S
C637        C638   1.408       .  A
C638        C639   1.392       .  A
C638        F643   1.357       .  S
C639        C640   1.402       .  A
C639        H644   1.083       .  S
C640        C641   1.406       .  A
C641        F645   1.358       .  S
C642        C647   1.410       .  A
C642        C651   1.407       .  A
C647        C648   1.395       .  A
C647        F652   1.358       .  S
C648        C649   1.399       .  A
C648        H653   1.080       .  S
C649        C650   1.402       .  A
C650        C651   1.395       .  A
C650        F654   1.357       .  S
C651        H655   1.083       .  S
N656        N657   1.320       .  A
N656        N662   1.313       .  A
N657        C664   1.354       .  A
N658        N660   1.314       .  A
N658        N659   1.318       .  A
N659        C665   1.352       .  A
N660        N661   1.316       .  A
N660       Mn685   2.182       .  S
N661        C665   1.352       .  A
N662        N663   1.314       .  A
N662       Mn674   2.172       .  S
N663        C664   1.349       .  A
C664       C1264   1.468       .  S
C665       C1235   1.469       .  S
N666        N672   1.313       .  A
N666        N667   1.314       .  A
N667        C675   1.349       .  A
N668        N669   1.319       .  A
N668        N670   1.314       .  A
N668       Mn674   2.188       .  S
N669        C676   1.352       .  A
N670        N671   1.318       .  A
N670       Mn696   2.197       .  S
N671        C676   1.354       .  A
N672        N673   1.316       .  A
N673        C675   1.350       .  A
Mn674      Cl698   2.526       .  S
C675       C1275   1.459       .  S
C676       C1295   1.472       .  S
N677        N678   1.319       .  A
N677        N683   1.312       .  A
N677       Mn685   2.190       .  S
N678        C686   1.354       .  A
N679        N681   1.314       .  A
N679        N680   1.318       .  A
N680        C687   1.352       .  A
N681        N682   1.317       .  A
N682        C687   1.352       .  A
N683        N684   1.314       .  A
N683       Mn697   2.168       .  S
N684        C686   1.349       .  A
C686       C1195   1.465       .  S
C687       C1224   1.468       .  S
N688        N689   1.316       .  A
N688        N694   1.312       .  A
N688       Mn696   2.173       .  S
N689        C699   1.350       .  A
N690        N691   1.316       .  A
N690        N692   1.314       .  A
N690       Mn697   2.181       .  S
N691        C700   1.349       .  A
N692        N693   1.323       .  A
N693        C700   1.356       .  A
N694        N695   1.315       .  A
N695        C699   1.350       .  A
Mn696      Cl698   2.541       .  S
C699       C1184   1.459       .  S
C700       C1164   1.474       .  S
N701        N702   1.325       .  A
N701        N707   1.318       .  A
N701       Mn730   2.228       .  S
N702        C709   1.357       .  A
N703        N705   1.317       .  A
N703        N704   1.324       .  A
N703       Mn719   2.218       .  S
N704        C710   1.357       .  A
N705        N706   1.319       .  A
N705       Mn730   2.196   1_545  S
N706        C710   1.351       .  A
N707        N708   1.322       .  A
N707       Mn719   2.215   1_565  S
N708        C709   1.355       .  A
C709       C1135   1.495       .  S
C710       C1035   1.486       .  S
N711        N717   1.318       .  A
N711        N712   1.324       .  A
N711       Mn741   2.218   1_545  S
N712        C720   1.355       .  A
N713        N714   1.322       .  A
N713        N715   1.318       .  A
N713       Mn719   2.216   1_565  S
N714        C721   1.355       .  A
N715        N716   1.322       .  A
N715       Mn741   2.210       .  S
N716        C721   1.353       .  A
N717        N718   1.320       .  A
N717       Mn719   2.210       .  S
N718        C720   1.353       .  A
Mn719      Cl743   2.560   1_545  S
C720       C1024   1.489       .  S
C721       C1075   1.483       .  S
N722        N723   1.324       .  A
N722        N728   1.318       .  A
N723        C731   1.356       .  A
N724        N726   1.317       .  A
N724        N725   1.322       .  A
N724       Mn742   2.210       .  S
N725        C732   1.355       .  A
N726        N727   1.318       .  A
N727        C732   1.350       .  A
N728        N729   1.324       .  A
N728       Mn742   2.218   1_545  S
N729        C731   1.356       .  A
Mn730      Cl743   2.545       .  S
C731       C1064   1.495       .  S
C732       C1124   1.476       .  S
N733        N734   1.321       .  A
N733        N739   1.318       .  A
N734        C744   1.352       .  A
N735        N736   1.322       .  A
N735        N737   1.317       .  A
N735       Mn742   2.210   1_545  S
N736        C745   1.354       .  A
N737        N738   1.319       .  A
N738        C745   1.352       .  A
N739        N740   1.323       .  A
N739       Mn742   2.220       .  S
N740        C744   1.355       .  A
Mn741      Cl743   2.549       .  S
C744       C1104   1.486       .  S
C745        C995   1.482       .  S
N746        N747   1.320       .  A
N746        N752   1.319       .  A
N746       Mn775   2.204       .  S
N747        C754   1.352       .  A
N748        N750   1.318       .  A
N748        N749   1.325       .  A
N748       Mn764   2.228       .  S
N749        C755   1.356       .  A
N750        N751   1.323       .  A
N750       Mn775   2.214   1_455  S
N751        C755   1.353       .  A
N752        N753   1.325       .  A
N752       Mn764   2.226   1_655  S
N753        C754   1.357       .  A
C754        C975   1.488       .  S
C755        C835   1.486       .  S
N756        N762   1.319       .  A
N756        N757   1.321       .  A
N756       Mn786   2.209   1_455  S
N757        C765   1.353       .  A
N758        N759   1.324       .  A
N758        N760   1.320       .  A
N758       Mn764   2.225   1_655  S
N759        C766   1.356       .  A
N760        N761   1.321       .  A
N760       Mn786   2.210       .  S
N761        C766   1.352       .  A
N762        N763   1.321       .  A
N762       Mn764   2.209       .  S
N763        C765   1.353       .  A
Mn764      Cl788   2.561   1_455  S
C765        C904   1.482       .  S
C766        C924   1.488       .  S
N767        N768   1.320       .  A
N767        N773   1.317       .  A
N768        C776   1.352       .  A
N769        N771   1.317       .  A
N769        N770   1.321       .  A
N769       Mn787   2.208       .  S
N770        C777   1.353       .  A
N771        N772   1.324       .  A
N772        C777   1.357       .  A
N773        N774   1.322       .  A
N773       Mn787   2.209   1_455  S
N774        C776   1.355       .  A
Mn775      Cl788   2.550       .  S
C776        C864   1.483       .  S
C777        C955   1.491       .  S
N778        N779   1.324       .  A
N778        N784   1.316       .  A
N779        C789   1.356       .  A
N780        N781   1.325       .  A
N780        N782   1.317       .  A
N780       Mn787   2.220   1_455  S
N781        C790   1.356       .  A
N782        N783   1.323       .  A
N783        C790   1.354       .  A
N784        N785   1.321       .  A
N784       Mn787   2.209       .  S
N785        C789   1.353       .  A
Mn786      Cl788   2.553       .  S
C789        C944   1.488       .  S
C790        C884   1.486       .  S
C791        H792   1.107       .  S
C791        C797   1.542       .  S
C791        C796   1.535       .  S
C791        C795   1.535       .  S
C793        H794   1.111       .  S
C793        C799   1.548       .  S
C793        C798   1.525       .  S
C793        C800   1.550       .  S
C795        C798   1.366       .  D
C795       C1304   1.474       .  S
C796        C799   1.379       .  D
C796        C895   1.491       .  S
C797        C800   1.388       .  D
C797       C1044   1.510       .  S
C798       C1284   1.463       .  S
C799        C875   1.509       .  S
C800       C1055   1.501       .  S
C801        H802   1.110       .  S
C801        C807   1.541       .  S
C801        C806   1.536       .  S
C801        C805   1.534       .  S
C803        H804   1.112       .  S
C803        C809   1.545       .  S
C803        C808   1.529       .  S
C803        C810   1.541       .  S
C805        C808   1.368       .  D
C805       C1255   1.472       .  S
C806        C809   1.380       .  D
C806       C1015   1.488       .  S
C807        C810   1.382       .  D
C807        C915   1.505       .  S
C808       C1244   1.472       .  S
C809       C1004   1.500       .  S
C810        C935   1.491       .  S
C811        H812   1.112       .  S
C811        C817   1.546       .  S
C811        C816   1.548       .  S
C811        C815   1.525       .  S
C813        H814   1.104       .  S
C813        C819   1.545       .  S
C813        C818   1.537       .  S
C813        C820   1.534       .  S
C815        C818   1.365       .  D
C815       C1175   1.460       .  S
C816        C819   1.389       .  D
C816       C1144   1.501       .  S
C817        C820   1.379       .  D
C817        C844   1.502       .  S
C818       C1155   1.479       .  S
C819       C1115   1.511       .  S
C820        C855   1.498       .  S
C821        H822   1.111       .  S
C821        C827   1.543       .  S
C821        C826   1.544       .  S
C821        C825   1.533       .  S
C823        H824   1.111       .  S
C823        C829   1.540       .  S
C823        C828   1.530       .  S
C823        C830   1.542       .  S
C825        C828   1.370       .  D
C825       C1215   1.476       .  S
C826        C829   1.377       .  D
C826        C984   1.505       .  S
C827        C830   1.385       .  D
C827       C1084   1.493       .  S
C828       C1204   1.473       .  S
C829        C964   1.487       .  S
C830       C1095   1.505       .  S
C831        C832   1.410       .  A
C831        C836   1.405       .  A
C831        H841   1.082       .  S
C832        C837   1.507       .  S
C832        C833   1.416       .  A
C833        C834   1.405       .  A
C833        F838   1.357       .  S
C834        C835   1.401       .  A
C834        H839   1.083       .  S
C835        C836   1.407       .  A
C836        F840   1.357       .  S
C837        C842   1.415       .  A
C837        C846   1.407       .  A
C842        C843   1.409       .  A
C842        F847   1.357       .  S
C843        C844   1.404       .  A
C843        H848   1.083       .  S
C844        C845   1.410       .  A
C845        C846   1.399       .  A
C845        F849   1.356       .  S
C846        H850   1.082       .  S
C851        C852   1.395       .  A
C851        C856   1.392       .  A
C851        H861   1.084       .  S
C852        C857   1.476       .  S
C852        C853   1.406       .  A
C853        C854   1.405       .  A
C853        F858   1.357       .  S
C854        C855   1.406       .  A
C854        H859   1.083       .  S
C855        C856   1.414       .  A
C856        F860   1.352       .  S
C857        C862   1.404       .  A
C857        C866   1.400       .  A
C862        C863   1.399       .  A
C862        F867   1.358       .  S
C863        C864   1.406       .  A
C863        H868   1.083       .  S
C864        C865   1.411       .  A
C865        C866   1.400       .  A
C865        F869   1.357       .  S
C866        H870   1.083       .  S
C871        C872   1.412       .  A
C871        C876   1.407       .  A
C871        H881   1.082       .  S
C872        C877   1.508       .  S
C872        C873   1.410       .  A
C873        C874   1.402       .  A
C873        F878   1.357       .  S
C874        C875   1.411       .  A
C874        H879   1.080       .  S
C875        C876   1.406       .  A
C876        F880   1.357       .  S
C877        C882   1.412       .  A
C877        C886   1.413       .  A
C882        C883   1.404       .  A
C882        F887   1.357       .  S
C883        C884   1.404       .  A
C883        H888   1.083       .  S
C884        C885   1.404       .  A
C885        C886   1.406       .  A
C885        F889   1.357       .  S
C886        H890   1.082       .  S
C891        C892   1.407       .  A
C891        C896   1.405       .  A
C891        H901   1.083       .  S
C892        C897   1.479       .  S
C892        C893   1.401       .  A
C893        C894   1.393       .  A
C893        F898   1.358       .  S
C894        C895   1.406       .  A
C894        H899   1.081       .  S
C895        C896   1.406       .  A
C896        F900   1.357       .  S
C897        C902   1.404       .  A
C897        C906   1.403       .  A
C902        C903   1.400       .  A
C902        F907   1.357       .  S
C903        C904   1.407       .  A
C903        H908   1.083       .  S
C904        C905   1.408       .  A
C905        C906   1.398       .  A
C905        F909   1.357       .  S
C906        H910   1.083       .  S
C911        C912   1.397       .  A
C911        C916   1.393       .  A
C911        H921   1.084       .  S
C912        C917   1.483       .  S
C912        C913   1.407       .  A
C913        C914   1.407       .  A
C913        F918   1.357       .  S
C914        C915   1.410       .  A
C914        H919   1.083       .  S
C915        C916   1.415       .  A
C916        F920   1.352       .  S
C917        C922   1.405       .  A
C917        C926   1.404       .  A
C922        C923   1.399       .  A
C922        F927   1.358       .  S
C923        C924   1.406       .  A
C923        H928   1.083       .  S
C924        C925   1.411       .  A
C925        C926   1.404       .  A
C925        F929   1.357       .  S
C926        H930   1.083       .  S
C931        C932   1.408       .  A
C931        C936   1.403       .  A
C931        H941   1.084       .  S
C932        C937   1.495       .  S
C932        C933   1.410       .  A
C933        C934   1.399       .  A
C933        F938   1.357       .  S
C934        C935   1.404       .  A
C934        H939   1.084       .  S
C935        C936   1.404       .  A
C936        F940   1.357       .  S
C937        C942   1.411       .  A
C937        C946   1.405       .  A
C942        C943   1.405       .  A
C942        F947   1.357       .  S
C943        C944   1.405       .  A
C943        H948   1.084       .  S
C944        C945   1.409       .  A
C945        C946   1.400       .  A
C945        F949   1.357       .  S
C946        H950   1.084       .  S
C951        C952   1.407       .  A
C951        C956   1.402       .  A
C951        H961   1.083       .  S
C952        C957   1.494       .  S
C952        C953   1.409       .  A
C953        C954   1.402       .  A
C953        F958   1.357       .  S
C954        C955   1.408       .  A
C954        H959   1.083       .  S
C955        C956   1.408       .  A
C956        F960   1.357       .  S
C957        C962   1.409       .  A
C957        C966   1.410       .  A
C962        C963   1.400       .  A
C962        F967   1.357       .  S
C963        C964   1.404       .  A
C963        H968   1.082       .  S
C964        C965   1.401       .  A
C965        C966   1.402       .  A
C965        F969   1.357       .  S
C966        H970   1.083       .  S
C971        C972   1.403       .  A
C971        C976   1.398       .  A
C971        H981   1.083       .  S
C972        C977   1.485       .  S
C972        C973   1.406       .  A
C973        C974   1.406       .  A
C973        F978   1.357       .  S
C974        C975   1.408       .  A
C974        H979   1.083       .  S
C975        C976   1.409       .  A
C976        F980   1.357       .  S
C977        C982   1.407       .  A
C977        C986   1.397       .  A
C982        C983   1.408       .  A
C982        F987   1.357       .  S
C983        C984   1.410       .  A
C983        H988   1.083       .  S
C984        C985   1.412       .  A
C985        C986   1.393       .  A
C985        F989   1.351       .  S
C986        H990   1.084       .  S
C991        C992   1.401       .  A
C991        C996   1.397       .  A
C991       H1001   1.083       .  S
C992        C997   1.477       .  S
C992        C993   1.404       .  A
C993        C994   1.401       .  A
C993        F998   1.357       .  S
C994        C995   1.408       .  A
C994        H999   1.083       .  S
C995        C996   1.409       .  A
C996       F1000   1.357       .  S
C997       C1002   1.399       .  A
C997       C1006   1.404       .  A
C1002      C1003   1.392       .  A
C1002      F1007   1.358       .  S
C1003      C1004   1.409       .  A
C1003      H1008   1.078       .  S
C1004      C1005   1.410       .  A
C1005      C1006   1.405       .  A
C1005      F1009   1.356       .  S
C1006      H1010   1.083       .  S
C1011      C1012   1.410       .  A
C1011      C1016   1.404       .  A
C1011      H1021   1.082       .  S
C1012      C1017   1.498       .  S
C1012      C1013   1.412       .  A
C1013      C1014   1.398       .  A
C1013      F1018   1.357       .  S
C1014      C1015   1.402       .  A
C1014      H1019   1.082       .  S
C1015      C1016   1.402       .  A
C1016      F1020   1.357       .  S
C1017      C1022   1.412       .  A
C1017      C1026   1.406       .  A
C1022      C1023   1.404       .  A
C1022      F1027   1.357       .  S
C1023      C1024   1.406       .  A
C1023      H1028   1.083       .  S
C1024      C1025   1.409       .  A
C1025      C1026   1.399       .  A
C1025      F1029   1.357       .  S
C1026      H1030   1.083       .  S
C1031      C1032   1.402       .  A
C1031      C1036   1.399       .  A
C1031      H1041   1.083       .  S
C1032      C1037   1.478       .  S
C1032      C1033   1.404       .  A
C1033      C1034   1.402       .  A
C1033      F1038   1.357       .  S
C1034      C1035   1.407       .  A
C1034      H1039   1.083       .  S
C1035      C1036   1.411       .  A
C1036      F1040   1.357       .  S
C1037      C1042   1.397       .  A
C1037      C1046   1.405       .  A
C1042      C1043   1.391       .  A
C1042      F1047   1.358       .  S
C1043      C1044   1.412       .  A
C1043      H1048   1.074       .  S
C1044      C1045   1.413       .  A
C1045      C1046   1.407       .  A
C1045      F1049   1.356       .  S
C1046      H1050   1.083       .  S
C1051      C1052   1.407       .  A
C1051      C1056   1.401       .  A
C1051      H1061   1.082       .  S
C1052      C1057   1.503       .  S
C1052      C1053   1.413       .  A
C1053      C1054   1.407       .  A
C1053      F1058   1.357       .  S
C1054      C1055   1.403       .  A
C1054      H1059   1.083       .  S
C1055      C1056   1.410       .  A
C1056      F1060   1.356       .  S
C1057      C1062   1.412       .  A
C1057      C1066   1.409       .  A
C1062      C1063   1.405       .  A
C1062      F1067   1.357       .  S
C1063      C1064   1.407       .  A
C1063      H1068   1.083       .  S
C1064      C1065   1.408       .  A
C1065      C1066   1.405       .  A
C1065      F1069   1.357       .  S
C1066      H1070   1.082       .  S
C1071      C1072   1.408       .  A
C1071      C1076   1.403       .  A
C1071      H1081   1.083       .  S
C1072      C1077   1.494       .  S
C1072      C1073   1.409       .  A
C1073      C1074   1.400       .  A
C1073      F1078   1.357       .  S
C1074      C1075   1.404       .  A
C1074      H1079   1.083       .  S
C1075      C1076   1.407       .  A
C1076      F1080   1.357       .  S
C1077      C1082   1.409       .  A
C1077      C1086   1.408       .  A
C1082      C1083   1.399       .  A
C1082      F1087   1.357       .  S
C1083      C1084   1.406       .  A
C1083      H1088   1.083       .  S
C1084      C1085   1.405       .  A
C1085      C1086   1.403       .  A
C1085      F1089   1.357       .  S
C1086      H1090   1.083       .  S
C1091      C1092   1.407       .  A
C1091      C1096   1.409       .  A
C1091      H1101   1.083       .  S
C1092      C1097   1.485       .  S
C1092      C1093   1.400       .  A
C1093      C1094   1.394       .  A
C1093      F1098   1.358       .  S
C1094      C1095   1.410       .  A
C1094      H1099   1.079       .  S
C1095      C1096   1.410       .  A
C1096      F1100   1.357       .  S
C1097      C1102   1.404       .  A
C1097      C1106   1.406       .  A
C1102      C1103   1.403       .  A
C1102      F1107   1.357       .  S
C1103      C1104   1.408       .  A
C1103      H1108   1.083       .  S
C1104      C1105   1.407       .  A
C1105      C1106   1.402       .  A
C1105      F1109   1.357       .  S
C1106      H1110   1.083       .  S
C1111      C1112   1.406       .  A
C1111      C1116   1.406       .  A
C1111      H1121   1.083       .  S
C1112      C1117   1.484       .  S
C1112      C1113   1.399       .  A
C1113      C1114   1.390       .  A
C1113      F1118   1.359       .  S
C1114      C1115   1.411       .  A
C1114      H1119   1.073       .  S
C1115      C1116   1.413       .  A
C1116      F1120   1.356       .  S
C1117      C1122   1.406       .  A
C1117      C1126   1.406       .  A
C1122      C1123   1.400       .  A
C1122      F1127   1.357       .  S
C1123      C1124   1.404       .  A
C1123      H1128   1.083       .  S
C1124      C1125   1.405       .  A
C1125      C1126   1.397       .  A
C1125      F1129   1.358       .  S
C1126      H1130   1.083       .  S
C1131      C1132   1.409       .  A
C1131      C1136   1.403       .  A
C1131      H1141   1.082       .  S
C1132      C1137   1.507       .  S
C1132      C1133   1.413       .  A
C1133      C1134   1.406       .  A
C1133      F1138   1.357       .  S
C1134      C1135   1.406       .  A
C1134      H1139   1.083       .  S
C1135      C1136   1.410       .  A
C1136      F1140   1.357       .  S
C1137      C1142   1.412       .  A
C1137      C1146   1.411       .  A
C1142      C1143   1.402       .  A
C1142      F1147   1.357       .  S
C1143      C1144   1.406       .  A
C1143      H1148   1.083       .  S
C1144      C1145   1.405       .  A
C1145      C1146   1.407       .  A
C1145      F1149   1.357       .  S
C1146      H1150   1.082       .  S
C1151      C1152   1.405       .  A
C1151      C1156   1.394       .  A
C1151      H1161   1.083       .  S
C1152      C1157   1.479       .  S
C1152      C1153   1.406       .  A
C1153      C1154   1.397       .  A
C1153      F1158   1.357       .  S
C1154      C1155   1.403       .  A
C1154      H1159   1.083       .  S
C1155      C1156   1.401       .  A
C1156      F1160   1.354       .  S
C1157      C1162   1.405       .  A
C1157      C1166   1.406       .  A
C1162      C1163   1.394       .  A
C1162      F1167   1.358       .  S
C1163      C1164   1.405       .  A
C1163      H1168   1.083       .  S
C1164      C1165   1.405       .  A
C1165      C1166   1.399       .  A
C1165      F1169   1.357       .  S
C1166      H1170   1.083       .  S
C1171      C1172   1.400       .  A
C1171      C1176   1.387       .  A
C1171      H1181   1.084       .  S
C1172      C1177   1.462       .  S
C1172      C1173   1.405       .  A
C1173      C1174   1.391       .  A
C1173      F1178   1.358       .  S
C1174      C1175   1.397       .  A
C1174      H1179   1.083       .  S
C1175      C1176   1.402       .  A
C1176      F1180   1.356       .  S
C1177      C1182   1.402       .  A
C1177      C1186   1.401       .  A
C1182      C1183   1.389       .  A
C1182      F1187   1.358       .  S
C1183      C1184   1.403       .  A
C1183      H1188   1.083       .  S
C1184      C1185   1.404       .  A
C1185      C1186   1.390       .  A
C1185      F1189   1.358       .  S
C1186      H1190   1.084       .  S
C1191      C1192   1.404       .  A
C1191      C1196   1.395       .  A
C1191      H1201   1.083       .  S
C1192      C1197   1.468       .  S
C1192      C1193   1.403       .  A
C1193      C1194   1.388       .  A
C1193      F1198   1.358       .  S
C1194      C1195   1.404       .  A
C1194      H1199   1.083       .  S
C1195      C1196   1.405       .  A
C1196      F1200   1.358       .  S
C1197      C1202   1.406       .  A
C1197      C1206   1.401       .  A
C1202      C1203   1.392       .  A
C1202      F1207   1.358       .  S
C1203      C1204   1.399       .  A
C1203      H1208   1.081       .  S
C1204      C1205   1.406       .  A
C1205      C1206   1.389       .  A
C1205      F1209   1.357       .  S
C1206      H1210   1.083       .  S
C1211      C1212   1.401       .  A
C1211      C1216   1.389       .  A
C1211      H1221   1.083       .  S
C1212      C1217   1.472       .  S
C1212      C1213   1.407       .  A
C1213      C1214   1.395       .  A
C1213      F1218   1.357       .  S
C1214      C1215   1.400       .  A
C1214      H1219   1.083       .  S
C1215      C1216   1.407       .  A
C1216      F1220   1.357       .  S
C1217      C1222   1.405       .  A
C1217      C1226   1.403       .  A
C1222      C1223   1.391       .  A
C1222      F1227   1.358       .  S
C1223      C1224   1.402       .  A
C1223      H1228   1.083       .  S
C1224      C1225   1.407       .  A
C1225      C1226   1.395       .  A
C1225      F1229   1.357       .  S
C1226      H1230   1.083       .  S
C1231      C1232   1.404       .  A
C1231      C1236   1.394       .  A
C1231      H1241   1.083       .  S
C1232      C1237   1.474       .  S
C1232      C1233   1.405       .  A
C1233      C1234   1.392       .  A
C1233      F1238   1.358       .  S
C1234      C1235   1.403       .  A
C1234      H1239   1.083       .  S
C1235      C1236   1.406       .  A
C1236      F1240   1.357       .  S
C1237      C1242   1.409       .  A
C1237      C1246   1.402       .  A
C1242      C1243   1.395       .  A
C1242      F1247   1.358       .  S
C1243      C1244   1.399       .  A
C1243      H1248   1.082       .  S
C1244      C1245   1.404       .  A
C1245      C1246   1.391       .  A
C1245      F1249   1.357       .  S
C1246      H1250   1.082       .  S
C1251      C1252   1.400       .  A
C1251      C1256   1.392       .  A
C1251      H1261   1.083       .  S
C1252      C1257   1.470       .  S
C1252      C1253   1.407       .  A
C1253      C1254   1.392       .  A
C1253      F1258   1.358       .  S
C1254      C1255   1.398       .  A
C1254      H1259   1.082       .  S
C1255      C1256   1.406       .  A
C1256      F1260   1.357       .  S
C1257      C1262   1.402       .  A
C1257      C1266   1.404       .  A
C1262      C1263   1.390       .  A
C1262      F1267   1.358       .  S
C1263      C1264   1.404       .  A
C1263      H1268   1.083       .  S
C1264      C1265   1.406       .  A
C1265      C1266   1.396       .  A
C1265      F1269   1.357       .  S
C1266      H1270   1.083       .  S
C1271      C1272   1.401       .  A
C1271      C1276   1.388       .  A
C1271      H1281   1.083       .  S
C1272      C1277   1.464       .  S
C1272      C1273   1.404       .  A
C1273      C1274   1.389       .  A
C1273      F1278   1.358       .  S
C1274      C1275   1.402       .  A
C1274      H1279   1.083       .  S
C1275      C1276   1.405       .  A
C1276      F1280   1.358       .  S
C1277      C1282   1.405       .  A
C1277      C1286   1.400       .  A
C1282      C1283   1.389       .  A
C1282      F1287   1.358       .  S
C1283      C1284   1.398       .  A
C1283      H1288   1.083       .  S
C1284      C1285   1.403       .  A
C1285      C1286   1.387       .  A
C1285      F1289   1.354       .  S
C1286      H1290   1.083       .  S
C1291      C1292   1.406       .  A
C1291      C1296   1.398       .  A
C1291      H1301   1.083       .  S
C1292      C1297   1.482       .  S
C1292      C1293   1.408       .  A
C1293      C1294   1.392       .  A
C1293      F1298   1.357       .  S
C1294      C1295   1.401       .  A
C1294      H1299   1.083       .  S
C1295      C1296   1.407       .  A
C1296      F1300   1.358       .  S
C1297      C1302   1.409       .  A
C1297      C1306   1.407       .  A
C1302      C1303   1.394       .  A
C1302      F1307   1.358       .  S
C1303      C1304   1.399       .  A
C1303      H1308   1.080       .  S
C1304      C1305   1.401       .  A
C1305      C1306   1.395       .  A
C1305      F1309   1.357       .  S
C1306      H1310   1.083       .  S
