geometry optimzed in LAMMPS
_audit_creation_date              2020-11-30 
_audit_creation_method            'lammps2cif' 
_symmetry_space_group_name_H-M    'P1' 
_symmetry_Int_Tables_number       1 
_symmetry_cell_setting            triclinic 
loop_ 
_symmetry_equiv_pos_as_xyz 
  x,y,z 
_cell_length_a                    42.64122243 
_cell_length_b                    42.534859411595896 
_cell_length_c                    42.49186087146645 
_cell_angle_alpha                 90.11440300133933 
_cell_angle_beta                  89.7817812446651 
_cell_angle_gamma                 90.27828403865861 
loop_ 
_atom_site_label 
_atom_site_type_symbol 
_atom_site_fract_x 
_atom_site_fract_y 
_atom_site_fract_z 
_atom_site_charge 
C1          C  0.80775656  0.49577091  0.72188996     0.03300
C2          C  0.84077611  0.49365706  0.72207128     0.03200
C3          C  0.85592403  0.48469108  0.75014652    -0.17300
C4          C  0.83883793  0.47931492  0.77819283     0.03300
C5          C  0.80601171  0.48373962  0.77789907     0.03200
C6          C  0.79104381  0.49092411  0.74970773    -0.17300
H7          H  0.76570866  0.49357406  0.74958079     0.05300
H8          H  0.88124407  0.48249928  0.75031544     0.05300
C9          C  0.51281612  0.71880966  0.80357724     0.03300
C10         C  0.51423099  0.71896789  0.83687976     0.03200
C11         C  0.50588823  0.74694945  0.85287927    -0.17300
C12         C  0.49566862  0.77410661  0.83678761     0.03300
C13         C  0.49288622  0.77266364  0.80363188     0.03200
C14         C  0.50132216  0.74517062  0.78793410    -0.17300
H15         H  0.49971490  0.74457286  0.76241661     0.05300
H16         H  0.50725449  0.74755869  0.87833853     0.05300
C17         C  0.78158168  0.83389614  0.50062525     0.03300
C18         C  0.78060425  0.80073501  0.50263083     0.03200
C19         C  0.75275300  0.78583082  0.51126471    -0.17300
C20         C  0.72555926  0.80247394  0.51864206     0.03300
C21         C  0.72596212  0.83576491  0.51736915     0.03200
C22         C  0.75411458  0.85099901  0.50796028    -0.17300
H23         H  0.75483869  0.87644386  0.50676780     0.05300
H24         H  0.75215500  0.76029093  0.51182651     0.05300
O25         O  0.56622895  0.45932224  0.99904368    -0.80800
C26         C  0.54248384  0.39594009  0.88503015     0.98600
O27         O  0.53226078  0.38663687  0.91167232    -0.69900
O28         O  0.58126337  0.38320590  0.94779341    -0.73500
Al29       Al  0.54311790  0.40263970  0.95407414     1.49000
C30         C  0.60662361  0.39026895  0.96098433     0.93800
O31         O  0.61568267  0.45719938  0.92649335    -0.79700
O32         O  0.53075555  0.49289549  0.93059826    -0.73300
Al33       Al  0.58961061  0.45727988  0.96159055     1.90100
O34         O  0.58161904  0.47597987  0.89278969    -0.72400
O35         O  0.49907328  0.44160485  0.91455084    -0.72200
O36         O  0.55261605  0.42347414  0.88187380    -0.77900
O37         O  0.50303244  0.41947359  0.96103256    -0.76100
O38         O  0.55833892  0.43908677  0.94105647    -1.12200
O39         O  0.55174818  0.40985341  0.99927208    -0.71400
C40         C  0.55831866  0.43510190  0.01407006     0.99300
C41         C  0.60973150  0.47055982  0.90090657     0.95700
Al42       Al  0.54215967  0.45718124  0.90758008     1.55600
O43         O  0.61048550  0.41743226  0.97316872    -0.76000
C44         C  0.48635333  0.42988324  0.93903518     0.99900
C45         C  0.55095799  0.51147895  0.94167227     0.94800
O46         O  0.57631056  0.50067613  0.95298190    -0.81300
O47         O  0.50130255  0.55705162  0.53485632    -0.80800
C48         C  0.61556026  0.53748862  0.59720190     0.98600
O49         O  0.58928459  0.52596412  0.60585883    -0.69900
O50         O  0.55165369  0.57402773  0.61147414    -0.73500
Al51       Al  0.54673972  0.53607999  0.59065297     1.49000
C52         C  0.53668420  0.59855464  0.60519575     0.93800
O53         O  0.56933269  0.61149708  0.53867098    -0.79700
O54         O  0.57208045  0.52799323  0.49955575    -0.73300
Al55       Al  0.53659046  0.58315549  0.53755415     1.90100
O56         O  0.60617384  0.58107757  0.51951345    -0.72400
O57         O  0.58795416  0.49526193  0.54937282    -0.72200
O58         O  0.61815856  0.54986538  0.57058868    -0.77900
O59         O  0.54138788  0.49655464  0.57197074    -0.76100
O60         O  0.55904090  0.55298601  0.55465729    -1.12200
O61         O  0.50116049  0.54331302  0.58436883    -0.71400
C62         C  0.48629939  0.54940063  0.55915491     0.99300
C63         C  0.59583364  0.60835658  0.52625564     0.95700
Al64       Al  0.59345643  0.53952785  0.53608290     1.55600
O65         O  0.52388343  0.60215315  0.57833955    -0.76000
C66         C  0.56373534  0.48116219  0.56019910     0.99900
C67         C  0.55821225  0.54701780  0.48194069     0.94800
O68         O  0.54576924  0.57161512  0.49350834    -0.81300
O69         O  0.46487617  0.99291622  0.56882722    -0.80800
C70         C  0.39823966  0.88580774  0.52778554     0.98600
O71         O  0.39053777  0.91392627  0.52143695    -0.69900
O72         O  0.38443140  0.94541519  0.57389639    -0.73500
Al73       Al  0.40761546  0.95384123  0.53778212     1.49000
C74         C  0.38973428  0.95782651  0.60017996     0.93800
O75         O  0.45166902  0.91746526  0.61129571    -0.79700
O76         O  0.49734105  0.92635009  0.53088934    -0.73300
Al77       Al  0.45785286  0.95421136  0.58884600     1.90100
O78         O  0.47294341  0.88524859  0.57687950    -0.72400
O79         O  0.44921575  0.91677604  0.49297944    -0.72200
O80         O  0.42396668  0.87998756  0.54060205    -0.77900
O81         O  0.42821433  0.96333883  0.49999255    -0.76100
O82         O  0.44171278  0.93749865  0.55435889    -1.12200
O83         O  0.41684301  0.99744706  0.55093803    -0.71400
C84         C  0.44251001  0.00994427  0.55994788     0.99300
C85         C  0.46322312  0.89119833  0.60469006     0.95700
Al86       Al  0.45966212  0.90466598  0.53664236     1.55600
O87         O  0.41721000  0.96764557  0.60689568    -0.76000
C88         C  0.43929818  0.94271942  0.48189945     0.99900
C89         C  0.51461545  0.93421571  0.55345974     0.94800
O90         O  0.50207769  0.94330159  0.57915844    -0.81300
C91         C  0.51271276  0.27349837  0.65437336     0.03300
C92         C  0.51256977  0.27441401  0.68761913     0.03200
C93         C  0.50488936  0.24743145  0.70452824    -0.17300
C94         C  0.49605518  0.21953491  0.68974326     0.03300
C95         C  0.49520860  0.21811643  0.65645222     0.03200
C96         C  0.50408867  0.24517881  0.63913844    -0.17300
H97         H  0.50397717  0.24430144  0.61364123     0.05300
H98         H  0.50508079  0.24839614  0.73009452     0.05300
O99         O  0.49819527  0.07071409  0.96042007    -0.80800
C100        C  0.38805575  0.02718230  0.90206949     0.98600
O101        O  0.41554439  0.02243170  0.89142506    -0.69900
O102        O  0.44511759  0.07560924  0.88391665    -0.73500
Al103      Al  0.45615283  0.03929331  0.90551164     1.49000
C104        C  0.45750187  0.10197977  0.88873116     0.93800
O105        O  0.42094205  0.11062934  0.95405889    -0.79700
O106        O  0.43707870  0.03051286  0.99872122    -0.73300
Al107      Al  0.45886039  0.08957470  0.95671729     1.90100
O108        O  0.39251153  0.07436896  0.97804777    -0.72400
O109        O  0.42490327  0.99232603  0.95039582    -0.72200
O110        O  0.38416092  0.03783063  0.92933198    -0.77900
O111        O  0.46817339  0.00151242  0.92384726    -0.76100
O112        O  0.44220634  0.05454689  0.94156909    -1.12200
O113        O  0.49997136  0.05326828  0.91168902    -0.71400
C114        C  0.51383791  0.06205004  0.93676608     0.99300
C115        C  0.39707130  0.10283045  0.96967141     0.95700
Al116      Al  0.41201466  0.03513037  0.96256113     1.55600
O117        O  0.46920203  0.10841453  0.91549792    -0.76000
C118        C  0.44972467  0.98244479  0.93693837     0.99900
C119        C  0.44407008  0.05420486  0.01505468     0.94800
O120        O  0.45132665  0.07981111  0.00141272    -0.81300
C121        C  0.72176948  0.19104859  0.99562946     0.03300
C122        C  0.71967264  0.15795809  0.99231971     0.03200
C123        C  0.74595049  0.13959683  0.00101062    -0.17300
C124        C  0.77440677  0.15376578  0.01076283     0.03300
C125        C  0.77606778  0.18688781  0.01210717     0.03200
C126        C  0.74959237  0.20465714  0.00586358    -0.17300
H127        H  0.75119519  0.23013771  0.00750190     0.05300
H128        H  0.74451809  0.11419687  0.99946274     0.05300
C129        C  0.19542647  0.01375938  0.71800954     0.03300
C130        C  0.16264484  0.00904238  0.71829743     0.03200
C131        C  0.14585306  0.01609841  0.74615660    -0.17300
C132        C  0.16124005  0.02562707  0.77420488     0.03300
C133        C  0.19435631  0.02918372  0.77336156     0.03200
C134        C  0.21042913  0.02460270  0.74503455    -0.17300
H135        H  0.23584981  0.02648462  0.74480802     0.05300
H136        H  0.12055574  0.01375409  0.74597575     0.05300
C137        C  0.01583251  0.76515873  0.19530078     0.03300
C138        C  0.01358259  0.76736737  0.16207515     0.03200
C139        C  0.00419265  0.74008093  0.14518090    -0.17300
C140        C  0.99764786  0.71125714  0.16054061     0.03300
C141        C  0.00063541  0.70982741  0.19357120     0.03200
C142        C  0.00939798  0.73666016  0.21015225    -0.17300
H143        H  0.01065132  0.73545059  0.23567133     0.05300
H144        H  0.00250295  0.74103562  0.11976497     0.05300
C145        C  0.28123574  0.65227599  0.51313866     0.03300
C146        C  0.28135481  0.68546694  0.51095815     0.03200
C147        C  0.25369187  0.70127010  0.50389251    -0.17300
C148        C  0.22577141  0.68542483  0.49758534     0.03300
C149        C  0.22521941  0.65217744  0.49804693     0.03200
C150        C  0.25299195  0.63595726  0.50620012    -0.17300
H151        H  0.25265335  0.61049014  0.50697183     0.05300
H152        H  0.25399478  0.72680609  0.50293477     0.05300
C153        C  0.66137783  0.48411460  0.21905356     0.03300
C154        C  0.69410041  0.48909391  0.21812875     0.03200
C155        C  0.70979285  0.49855925  0.24535194    -0.17300
C156        C  0.69422552  0.50402364  0.27384201     0.03300
C157        C  0.66099815  0.50039633  0.27517794     0.03200
C158        C  0.64525420  0.49015756  0.24751342    -0.17300
H159        H  0.61996190  0.48765753  0.24772199     0.05300
H160        H  0.73513125  0.50122245  0.24441931     0.05300
O161        O  0.00004753  0.56363410  0.46787709    -0.80800
C162        C  0.89007422  0.52809265  0.40264572     0.98600
O163        O  0.91782593  0.52120575  0.39369500    -0.69900
O164        O  0.95224235  0.57216965  0.38825350    -0.73500
Al165      Al  0.95912521  0.53521595  0.41035703     1.49000
C166        C  0.96734583  0.59691592  0.39378321     0.93800
O167        O  0.92616988  0.60886444  0.45806252    -0.79700
O168        O  0.93389549  0.52650728  0.50100466    -0.73300
Al169      Al  0.96222635  0.58502262  0.46219572     1.90100
O170        O  0.89393620  0.57455596  0.47976373    -0.72400
O171        O  0.92110171  0.49057800  0.45156696    -0.72200
O172        O  0.88555385  0.54007775  0.42927687    -0.77900
O173        O  0.96736632  0.49646095  0.42947634    -0.76100
O174        O  0.94404626  0.55148248  0.44544918    -1.12200
O175        O  0.00363262  0.54655737  0.41922826    -0.71400
C176        C  0.01664383  0.55531209  0.44484250     0.99300
C177        C  0.90104059  0.60279640  0.47238135     0.95700
Al178      Al  0.91117599  0.53421124  0.46406313     1.55600
O179        O  0.97604391  0.60349736  0.42168097    -0.76000
C180        C  0.94634292  0.47887475  0.44062846     0.99900
C181        C  0.94341531  0.54850500  0.51833239     0.94800
O182        O  0.95203440  0.57448633  0.50622437    -0.81300
O183        O  0.03898211  0.99062020  0.42768697    -0.80800
C184        C  0.10241325  0.88203886  0.46911054     0.98600
O185        O  0.11096684  0.91007979  0.47560738    -0.69900
O186        O  0.11771436  0.94159603  0.42359981    -0.73500
Al187      Al  0.09486195  0.95066718  0.45949057     1.49000
C188        C  0.11293780  0.95353950  0.39712386     0.93800
O189        O  0.04959077  0.91415280  0.38651207    -0.79700
O190        O  0.00431682  0.92529032  0.46730024    -0.73300
Al191      Al  0.04481247  0.95141117  0.40844502     1.90100
O192        O  0.02663793  0.88336111  0.42117898    -0.72400
O193        O  0.05311917  0.91439526  0.50471048    -0.72200
O194        O  0.07631721  0.87692543  0.45654064    -0.77900
O195        O  0.07461673  0.96077744  0.49719104    -0.76100
O196        O  0.06034018  0.93485233  0.44309080    -1.12200
O197        O  0.08670879  0.99469463  0.44622190    -0.71400
C198        C  0.06162992  0.00761235  0.43636464     0.99300
C199        C  0.03495358  0.88933368  0.39293263     0.95700
Al200      Al  0.04144464  0.90250790  0.46113463     1.55600
O201        O  0.08579671  0.96368089  0.39005696    -0.76000
C202        C  0.06382528  0.94026897  0.51556742     0.99900
C203        C  0.98761112  0.93362452  0.44449573     0.94800
O204        O  0.00046344  0.94174802  0.41861916    -0.81300
O205        O  0.96703621  0.49319622  0.06336643    -0.80800
C206        C  0.89813830  0.38267817  0.04173747     0.98600
O207        O  0.89076271  0.40909422  0.02981408    -0.69900
O208        O  0.88641692  0.44842513  0.07697807    -0.73500
Al209      Al  0.90873027  0.45102840  0.03955236     1.49000
C210        C  0.89278306  0.46466560  0.10079791     0.93800
O211        O  0.95604726  0.42375768  0.11579368    -0.79700
O212        O  0.99766593  0.42165958  0.03241034    -0.73300
Al213      Al  0.96090544  0.45746980  0.08840893     1.90100
O214        O  0.97590795  0.38770244  0.08479456    -0.72400
O215        O  0.94734843  0.40709010  0.99907486    -0.72200
O216        O  0.92477046  0.37885692  0.05340801    -0.77900
O217        O  0.92831439  0.45492162  0.00029781    -0.76100
O218        O  0.94330396  0.43669936  0.05713736    -1.12200
O219        O  0.91854553  0.49586067  0.04663749    -0.71400
C220        C  0.94414134  0.50930235  0.05435266     0.99300
C221        C  0.96735619  0.39680147  0.11209501     0.95700
Al222      Al  0.96023381  0.40154342  0.04336435     1.55600
O223        O  0.92093242  0.47321820  0.10637324    -0.76000
C224        C  0.93785946  0.43159151  0.98486447     0.99900
C225        C  0.01568677  0.43420309  0.05216182     0.94800
O226        O  0.00446174  0.44578098  0.07748574    -0.81300
C227        C  0.34023379  0.00626976  0.27947253     0.03300
C228        C  0.30719746  0.00736846  0.28152606     0.03200
C229        C  0.28970339  0.01595373  0.25531834    -0.17300
C230        C  0.30365618  0.02280674  0.22642307     0.03300
C231        C  0.33684515  0.02271923  0.22377716     0.03200
C232        C  0.35470244  0.01462731  0.25062865    -0.17300
H233        H  0.38006397  0.01425213  0.24887710     0.05300
H234        H  0.26425792  0.01563134  0.25702913     0.05300
O235        O  0.06362239  0.02945313  0.00240450    -0.80800
C236        C  0.02883383  0.09859146  0.11028858     0.98600
O237        O  0.02006660  0.10518123  0.08243172    -0.69900
O238        O  0.06991083  0.11150106  0.04651596    -0.73500
Al239      Al  0.03417763  0.08702545  0.04174200     1.49000
C240        C  0.09535019  0.10625816  0.03253035     0.93800
O241        O  0.11055422  0.04362308  0.07466514    -0.79700
O242        O  0.02983051  0.99836748  0.07331877    -0.73300
Al243      Al  0.08570784  0.03720702  0.03973214     1.90100
O244        O  0.07832622  0.02394207  0.10993238    -0.72400
O245        O  0.99292766  0.04679555  0.08373834    -0.72200
O246        O  0.04311761  0.07351161  0.11567077    -0.77900
O247        O  0.99661727  0.06497318  0.03555211    -0.76100
O248        O  0.05247819  0.05371920  0.05822447    -1.12200
O249        O  0.04512332  0.07704631  0.99759374    -0.71400
C250        C  0.05515026  0.05176988  0.98507013     0.99300
C251        C  0.10591100  0.03179333  0.10126085     0.95700
Al252      Al  0.03721803  0.03684192  0.09295609     1.55600
O253        O  0.10285017  0.07822927  0.02471986    -0.76000
C254        C  0.98005515  0.05507067  0.05804092     0.99900
C255        C  0.05121902  0.98068367  0.06347141     0.94800
O256        O  0.07621728  0.99282816  0.05202176    -0.81300
C257        C  0.01493424  0.27816252  0.34136346     0.03300
C258        C  0.01793626  0.27894540  0.30821322     0.03200
C259        C  0.02751894  0.25199082  0.29220554    -0.17300
C260        C  0.03317169  0.22359488  0.30759361     0.03300
C261        C  0.03152360  0.22236505  0.34094696     0.03200
C262        C  0.02258155  0.25004694  0.35730271    -0.17300
H263        H  0.02122470  0.24971191  0.38276680     0.05300
H264        H  0.02820295  0.25248840  0.26664081     0.05300
C265        C  0.27951343  0.30017164  0.00239978     0.03300
C266        C  0.27967924  0.33272338  0.99587924     0.03200
C267        C  0.25168310  0.34979127  0.00067165    -0.17300
C268        C  0.22347698  0.33490086  0.01052441     0.03300
C269        C  0.22365723  0.30188435  0.01526033     0.03200
C270        C  0.25165418  0.28545440  0.01152950    -0.17300
H271        H  0.25157424  0.26013495  0.01486955     0.05300
H272        H  0.25215757  0.37504618  0.99744259     0.05300
C273        C  0.11418608  0.19035097  0.01198510    -0.27200
C274        C  0.14561867  0.19321192  0.02106302     0.06400
C275        C  0.16182598  0.16581452  0.03033331     0.26000
C276        C  0.14626776  0.13658615  0.03187065    -0.11700
C277        C  0.11436699  0.13432358  0.02434296    -0.25600
C278        C  0.09874655  0.16137534  0.01353609     0.36800
C279        C  0.16090516  0.22487754  0.02164852     0.06400
F280        F  0.19257842  0.16738410  0.03831802    -0.19400
H281        H  0.15865942  0.11617935  0.04046725     0.16200
F282        F  0.06796094  0.16000545  0.00552634    -0.23100
H283        H  0.10110575  0.21087957  0.00483019     0.18000
C284        C  0.15931734  0.24537077  0.99562757     0.26000
C285        C  0.17663132  0.27352824  0.99536527    -0.11700
C286        C  0.19561966  0.28181720  0.02100723    -0.25700
C287        C  0.19474631  0.26287285  0.04812461     0.36900
C288        C  0.17762699  0.23471012  0.04836589    -0.27300
F289        F  0.14319117  0.23700319  0.96941499    -0.19500
H290        H  0.17754156  0.28733780  0.97398667     0.16200
F291        F  0.21302163  0.27012812  0.07322656    -0.23200
H292        H  0.17842664  0.21993552  0.06907127     0.18100
C293        C  0.05592309  0.17862907  0.23580433    -0.27200
C294        C  0.02711316  0.16449167  0.22815355     0.06400
C295        C  0.00300774  0.16414188  0.25092372     0.26000
C296        C  0.00701715  0.17970594  0.27975730    -0.11700
C297        C  0.03495199  0.19602609  0.28630162    -0.25600
C298        C  0.05982586  0.19432400  0.26450222     0.36800
C299        C  0.02270790  0.14978008  0.19665635     0.06400
F300        F  0.97471812  0.15098384  0.24431579    -0.19400
H301        H  0.98718425  0.18169011  0.29563734     0.16200
F302        F  0.08680166  0.21056430  0.26968490    -0.23100
H303        H  0.07509408  0.17849930  0.21901165     0.18000
C304        C  0.03045545  0.16586362  0.16857719     0.26000
C305        C  0.02984320  0.15010886  0.13943902    -0.11700
C306        C  0.02158280  0.11820666  0.13807682    -0.25700
C307        C  0.01174888  0.10294299  0.16586481     0.36900
C308        C  0.01234238  0.11857059  0.19472052    -0.27300
F309        F  0.03937726  0.19652202  0.16945749    -0.19500
H310        H  0.03765956  0.16220949  0.11839676     0.16200
F311        F  0.00317444  0.07214814  0.16534298    -0.23200
H312        H  0.00621891  0.10569006  0.21585444     0.18100
C313        C  0.19039078  0.01699371  0.12105419    -0.27200
C314        C  0.19210941  0.02652828  0.15254182     0.06400
C315        C  0.16424138  0.03514717  0.16836641     0.26000
C316        C  0.13537793  0.03495756  0.15242613    -0.11700
C317        C  0.13411566  0.02644522  0.12055425    -0.25600
C318        C  0.16187110  0.01687333  0.10523553     0.36800
C319        C  0.22316082  0.02715003  0.16831225     0.06400
F320        F  0.16495723  0.04378706  0.19911371    -0.19400
H321        H  0.11437896  0.04273066  0.16451540     0.16200
F322        F  0.16155487  0.00806658  0.07448888    -0.23100
H323        H  0.21142726  0.01032161  0.10836195     0.18000
C324        C  0.24259713  0.00051391  0.16760385     0.26000
C325        C  0.27107573  0.00054002  0.18377464    -0.11700
C326        C  0.28126646  0.02729528  0.20028808    -0.25700
C327        C  0.26243329  0.05438488  0.19992047     0.36900
C328        C  0.23368701  0.05429251  0.18401030    -0.27300
F329        F  0.23296148  0.97362531  0.15325547    -0.19500
H330        H  0.28387669  0.97870166  0.18561766     0.16200
F331        F  0.27054772  0.07990121  0.21737024    -0.23200
H332        H  0.21923384  0.07515707  0.18464834     0.18100
C333        C  0.15967149  0.39708634  0.00369097    -0.27200
C334        C  0.14226438  0.39248360  0.03155983     0.06400
C335        C  0.15213420  0.36886629  0.05252983     0.26000
C336        C  0.17844057  0.35044439  0.04557323    -0.11700
C337        C  0.19520848  0.35447373  0.01731177    -0.25600
C338        C  0.18560596  0.37825047  0.99648415     0.36800
C339        C  0.11200380  0.40958526  0.03653566     0.06400
F340        F  0.13555404  0.36234697  0.07905565    -0.19400
H341        H  0.18564193  0.33281654  0.06236553     0.16200
F342        F  0.20066536  0.38269877  0.96863041    -0.23100
H343        H  0.15279065  0.41497957  0.98702565     0.18000
C344        C  0.10234771  0.42081195  0.06634828     0.26000
C345        C  0.07149470  0.43142647  0.07111184    -0.11700
C346        C  0.04998595  0.43168268  0.04615521    -0.25700
C347        C  0.06084790  0.42387546  0.01572473     0.36900
C348        C  0.09124321  0.41269923  0.01116593    -0.27300
F349        F  0.12242055  0.42092963  0.09104406    -0.19500
H350        H  0.06398394  0.43774404  0.09465523     0.16200
F351        F  0.04151101  0.42523663  0.99043826    -0.23200
H352        H  0.09786735  0.40476803  0.98784981     0.18100
C353        C  0.96881312  0.32217416  0.25011222    -0.27200
C354        C  0.99230080  0.33509334  0.23060860     0.06400
C355        C  0.02342708  0.33548365  0.24144594     0.26000
C356        C  0.03122780  0.32048905  0.26959760    -0.11700
C357        C  0.00815076  0.30526423  0.28774878    -0.25600
C358        C  0.97664018  0.30733031  0.27843910     0.36800
C359        C  0.98425790  0.34810367  0.19915011     0.06400
F360        F  0.04647467  0.34952878  0.22433469    -0.19400
H361        H  0.05570166  0.31865299  0.27606538     0.16200
F362        F  0.95389996  0.29224296  0.29508237    -0.23100
H363        H  0.94458624  0.32200219  0.24254234     0.18000
C364        C  0.00110891  0.33971636  0.17171426     0.26000
C365        C  0.99468803  0.35429455  0.14279303    -0.11700
C366        C  0.97129466  0.37728733  0.14077223    -0.25700
C367        C  0.95311998  0.38389973  0.16783425     0.36900
C368        C  0.95962862  0.36954009  0.19654273    -0.27300
F369        F  0.02380338  0.31749536  0.17289245    -0.19500
H370        H  0.00873476  0.34844773  0.12232872     0.16200
F371        F  0.92928168  0.40485912  0.16680516    -0.23200
H372        H  0.94595466  0.37599413  0.21708565     0.18100
C373        C  0.08144721  0.09373436  0.41899855    -0.27200
C374        C  0.05195491  0.10526058  0.40955599     0.06400
C375        C  0.02574541  0.08520627  0.41252935     0.26000
C376        C  0.02909816  0.05453032  0.42367787    -0.11700
C377        C  0.05868184  0.04232939  0.43160195    -0.25600
C378        C  0.08484907  0.06263741  0.42993456     0.36800
C379        C  0.04866725  0.13689999  0.39429422     0.06400
F380        F  0.99704057  0.09426489  0.40236543    -0.19400
H381        H  0.00840611  0.03967625  0.42446181     0.16200
F382        F  0.11390910  0.05205473  0.43715091    -0.23100
H383        H  0.10206309  0.10858169  0.41711570     0.18000
C384        C  0.02337292  0.15687850  0.40169710     0.26000
C385        C  0.01791364  0.18412220  0.38408196    -0.11700
C386        C  0.03800637  0.19295063  0.35925926    -0.25700
C387        C  0.06469841  0.17431617  0.35343846     0.36900
C388        C  0.06967375  0.14647960  0.37048362    -0.27300
F389        F  0.00392841  0.15026283  0.42618946    -0.19500
H390        H  0.99763723  0.19829198  0.38979742     0.16200
F391        F  0.08641899  0.18329379  0.33181904    -0.23200
H392        H  0.08969157  0.13203380  0.36455290     0.18100
C393        C  0.17465522  0.98918737  0.34363205    -0.27200
C394        C  0.20045339  0.96972502  0.35039094     0.06400
C395        C  0.19571747  0.94304434  0.36919083     0.26000
C396        C  0.16614528  0.93656401  0.38162762    -0.11700
C397        C  0.14072356  0.95691301  0.37648594    -0.25600
C398        C  0.14496660  0.98292855  0.35662023     0.36800
C399        C  0.23224576  0.97782749  0.33844292     0.06400
F400        F  0.22007716  0.92439059  0.37742974    -0.19400
H401        H  0.16358576  0.91641259  0.39701867     0.16200
F402        F  0.12122258  0.00342602  0.35159520    -0.23100
H403        H  0.17772936  0.00975227  0.32892172     0.18000
C404        C  0.25078241  0.95539249  0.32267161     0.26000
C405        C  0.27884630  0.96445998  0.30812584    -0.11700
C406        C  0.28851767  0.99600395  0.30850602    -0.25700
C407        C  0.27140935  0.01786581  0.32637124     0.36900
C408        C  0.24357788  0.00876722  0.34133408    -0.27300
F409        F  0.24032920  0.92548458  0.31852570    -0.19500
H410        H  0.29118033  0.94758511  0.29356695     0.22600
F411        F  0.27985370  0.04867586  0.32647465    -0.23200
H412        H  0.22998709  0.02630336  0.35379933     0.18100
C413        C  0.93919911  0.39654207  0.40839525    -0.27200
C414        C  0.96965158  0.38515967  0.41370592     0.06400
C415        C  0.98988021  0.40263614  0.43318132     0.26000
C416        C  0.98079212  0.43210368  0.44470085    -0.11700
C417        C  0.95122056  0.44456748  0.43748435    -0.25600
C418        C  0.93001081  0.42603505  0.42013176     0.36800
C419        C  0.98144935  0.35727282  0.39602710     0.06400
F420        F  0.01901063  0.39183265  0.43983646    -0.19400
H421        H  0.99761433  0.44610337  0.45775435     0.16200
F422        F  0.90177410  0.43784471  0.41162691    -0.23100
H423        H  0.92328966  0.38359079  0.39330003     0.18000
C424        C  0.96621505  0.32792076  0.39767242     0.26000
C425        C  0.97726687  0.30237711  0.37989935    -0.11700
C426        C  0.00340278  0.30568720  0.35982615    -0.25700
C427        C  0.01877590  0.33498244  0.35841504     0.36900
C428        C  0.00788345  0.36041095  0.37634569    -0.27300
F429        F  0.94101562  0.32382153  0.41685563    -0.19500
H430        H  0.96524287  0.27994630  0.38160637     0.16200
F431        F  0.04477549  0.33884555  0.34029800    -0.23200
H432        H  0.01995962  0.38281285  0.37461342     0.18100
C433        C  0.76165388  0.54077151  0.31747446    -0.27200
C434        C  0.77164906  0.51555932  0.33621253     0.06400
C435        C  0.75169601  0.48903859  0.33894592     0.26000
C436        C  0.72383179  0.48702579  0.32144567    -0.11700
C437        C  0.71528700  0.51123735  0.30085325    -0.25600
C438        C  0.73408476  0.53855747  0.29976931     0.36800
C439        C  0.80302755  0.51684735  0.35208863     0.06400
F440        F  0.76026586  0.46392359  0.35651889    -0.19400
H441        H  0.71033709  0.46538975  0.32192841     0.16200
F442        F  0.72696513  0.56215409  0.27958583    -0.23100
H443        H  0.77583628  0.56187133  0.31558826     0.18000
C444        C  0.83030408  0.52764701  0.33622919     0.26000
C445        C  0.85930346  0.52967746  0.35193152    -0.11700
C446        C  0.86162439  0.52116007  0.38369585    -0.25700
C447        C  0.83466499  0.50944257  0.39912932     0.36900
C448        C  0.80587994  0.50746100  0.38357952    -0.27300
F449        F  0.82899009  0.53627692  0.30553724    -0.19500
H450        H  0.87959376  0.53902780  0.33964690     0.16200
F451        F  0.83604234  0.50032283  0.42970425    -0.23200
H452        H  0.78552807  0.49936052  0.39660488     0.18100
C453        C  0.75491127  0.50898755  0.15848385    -0.27200
C454        C  0.77211973  0.48088102  0.15790464     0.06400
C455        C  0.75854421  0.45362585  0.17108781     0.26000
C456        C  0.72991504  0.45534898  0.18723241    -0.11700
C457        C  0.71424907  0.48411932  0.19022583    -0.25600
C458        C  0.72619938  0.51060094  0.17443143     0.36800
C459        C  0.80471856  0.48051042  0.14517344     0.06400
F460        F  0.77366224  0.42564510  0.16965846    -0.19400
H461        H  0.72137880  0.43485776  0.19978035     0.16200
F462        F  0.71182902  0.53885652  0.17747112    -0.23100
H463        H  0.76470378  0.53031220  0.14853519     0.18000
C464        C  0.81179783  0.49404345  0.11582933     0.26000
C465        C  0.84193695  0.49143429  0.10316545    -0.11700
C466        C  0.86567434  0.47543456  0.11935823    -0.25700
C467        C  0.85929412  0.46349682  0.14941435     0.36900
C468        C  0.82906578  0.46619489  0.16227570    -0.27300
F469        F  0.78911928  0.50779028  0.09832721    -0.19500
H470        H  0.84626983  0.50016786  0.07959133     0.16200
F471        F  0.88145024  0.44724119  0.16524802    -0.23200
H472        H  0.82442471  0.45625890  0.18528027     0.18100
C473        C  0.09771693  0.58993870  0.43302161    -0.27200
C474        C  0.11107585  0.58517914  0.46292235     0.06400
C475        C  0.09465150  0.56627411  0.48467268     0.26000
C476        C  0.06504031  0.55401081  0.47727512    -0.11700
C477        C  0.05101780  0.55999504  0.44801482    -0.25600
C478        C  0.06799210  0.57753953  0.42559737     0.36800
C479        C  0.14089751  0.60151286  0.47208708     0.06400
F480        F  0.10682082  0.56033302  0.51351494    -0.19400
H481        H  0.05223556  0.54105994  0.49515910     0.16200
F482        F  0.05464311  0.58531463  0.39775681    -0.23100
H483        H  0.10951097  0.60479322  0.41597092     0.18000
C484        C  0.16746902  0.60143619  0.45224357     0.26000
C485        C  0.19490541  0.61763092  0.46096725    -0.11700
C486        C  0.19642424  0.63420221  0.48956212    -0.25700
C487        C  0.17029421  0.63364756  0.50974925     0.36900
C488        C  0.14279400  0.61777667  0.50094838    -0.27300
F489        F  0.16711898  0.58523000  0.42470426    -0.19500
H490        H  0.21497970  0.61744992  0.44526263     0.16200
F491        F  0.17154953  0.64805402  0.53822580    -0.23200
H492        H  0.12276701  0.61847996  0.51667984     0.18100
C493        C  0.18100307  0.74996504  0.45900108    -0.27200
C494        C  0.16576520  0.76327962  0.48519501     0.06400
C495        C  0.16521456  0.74636819  0.51366771     0.26000
C496        C  0.18171476  0.71814964  0.51644700    -0.11700
C497        C  0.19861432  0.70589102  0.49086020    -0.25600
C498        C  0.19726491  0.72152512  0.46176333     0.36800
C499        C  0.15095094  0.79488916  0.48298999     0.06400
F500        F  0.15096994  0.75841151  0.53961023    -0.19400
H501        H  0.18365775  0.70741198  0.53942574     0.16200
F502        F  0.21419193  0.71080883  0.43687158    -0.23100
H503        H  0.18124318  0.76217798  0.43666679     0.18000
C504        C  0.16732040  0.82119342  0.47081327     0.26000
C505        C  0.15240367  0.85053937  0.46813592    -0.11700
C506        C  0.12098156  0.85392726  0.47738590    -0.25700
C507        C  0.10516302  0.82789401  0.49055850     0.36900
C508        C  0.11997324  0.79885863  0.49328421    -0.27300
F509        F  0.19764719  0.81847837  0.46142982    -0.19500
H510        H  0.16488516  0.87012613  0.45759611     0.16200
F511        F  0.07483764  0.83035544  0.50009868    -0.23200
H512        H  0.10682761  0.77912476  0.50268456     0.18100
C513        C  0.06691707  0.89416069  0.08249885    -0.27200
C514        C  0.03727746  0.88459758  0.09406689     0.06400
C515        C  0.01228451  0.90590305  0.09201093     0.26000
C516        C  0.01685923  0.93580057  0.07927539    -0.11700
C517        C  0.04667750  0.94618050  0.06907623    -0.25600
C518        C  0.07164519  0.92462257  0.07009460     0.36800
C519        C  0.03252317  0.85343299  0.10991240     0.06400
F520        F  0.98374763  0.89880652  0.10445660    -0.19400
H521        H  0.99702323  0.95160947  0.07915819     0.16200
F522        F  0.10084826  0.93337349  0.06071257    -0.23100
H523        H  0.08661295  0.87824681  0.08372488     0.18000
C524        C  0.00619863  0.83442279  0.10313905     0.26000
C525        C  0.00013342  0.80701629  0.12044109    -0.11700
C526        C  0.02044976  0.79721975  0.14446828    -0.25700
C527        C  0.04769214  0.81533787  0.15011816     0.36900
C528        C  0.05337516  0.84322818  0.13329451    -0.27300
F529        F  0.98642451  0.84208783  0.07943716    -0.19500
H530        H  0.97931002  0.79339684  0.11502712     0.16200
F531        F  0.06944826  0.80569021  0.17112363    -0.23200
H532        H  0.07399759  0.85709628  0.13884415     0.18100
C533        C  0.99734528  0.62994986  0.12334814    -0.27200
C534        C  0.97011091  0.63078905  0.10478053     0.06400
C535        C  0.95183966  0.65825440  0.10496236     0.26000
C536        C  0.96091127  0.68430926  0.12313364    -0.11700
C537        C  0.98809589  0.68333615  0.14169994    -0.25600
C538        C  0.00638198  0.65593900  0.14146444     0.36800
C539        C  0.96098584  0.60269238  0.08584588     0.06400
F540        F  0.92564547  0.66014298  0.08704110    -0.19400
H541        H  0.94664527  0.70531249  0.12281096     0.16200
F542        F  0.03346808  0.65460107  0.15804492    -0.23100
H543        H  0.01167032  0.60899421  0.12390371     0.18000
C544        C  0.98323917  0.58725331  0.06686535     0.26000
C545        C  0.97620690  0.55809339  0.05331465    -0.11700
C546        C  0.94685094  0.54374830  0.05819683    -0.25700
C547        C  0.92370219  0.56029076  0.07502263     0.36900
C548        C  0.93078918  0.58950599  0.08873766    -0.27300
F549        F  0.01232936  0.59967910  0.06262772    -0.19500
H550        H  0.99451423  0.54563542  0.04075624     0.16200
F551        F  0.89551069  0.54668751  0.08128695    -0.23200
H552        H  0.91332133  0.60077942  0.10343255     0.18100
C553        C  0.96123744  0.66303545  0.25598330    -0.27200
C554        C  0.98770225  0.65236400  0.27240500     0.06400
C555        C  0.01724249  0.65395551  0.25762182     0.26000
C556        C  0.02050547  0.66845395  0.22834551    -0.11700
C557        C  0.99455634  0.68189658  0.21334660    -0.25600
C558        C  0.96460000  0.67771354  0.22663562     0.36800
C559        C  0.98471375  0.64024509  0.30507351     0.06400
F560        F  0.04344594  0.64429744  0.27277385    -0.19400
H561        H  0.04388896  0.67239976  0.21906151     0.16200
F562        F  0.93915021  0.69088718  0.21293936    -0.23100
H563        H  0.93814795  0.66129957  0.26655321     0.18000
C564        C  0.96855661  0.65712881  0.32871952     0.26000
C565        C  0.96497259  0.64441840  0.35904749    -0.11700
C566        C  0.97757230  0.61489873  0.36603945    -0.25700
C567        C  0.99483686  0.59883280  0.34282310     0.36900
C568        C  0.99831564  0.61136896  0.31275837    -0.27300
F569        F  0.95595111  0.68565093  0.32238647    -0.19500
H570        H  0.95107762  0.65679219  0.37645383     0.16200
F571        F  0.00691745  0.56997840  0.34878680    -0.23200
H572        H  0.01072140  0.59786623  0.29506032     0.18100
C573        C  0.04889227  0.80615523  0.26540006    -0.27200
C574        C  0.02270098  0.82335485  0.27552045     0.06400
C575        C  0.99684540  0.82619754  0.25510431     0.26000
C576        C  0.99660396  0.81053498  0.22610615    -0.11700
C577        C  0.02184930  0.79151616  0.21715522    -0.25600
C578        C  0.04837190  0.79008613  0.23671169     0.36800
C579        C  0.02255877  0.83838780  0.30716584     0.06400
F580        F  0.97076500  0.84201632  0.26420927    -0.19400
H581        H  0.97548129  0.81083547  0.21202222     0.16200
F582        F  0.07249781  0.77065086  0.22935152    -0.23100
H583        H  0.06936776  0.80419494  0.28025164     0.18000
C584        C  0.03258312  0.82227546  0.33441170     0.26000
C585        C  0.03436984  0.83796050  0.36352924    -0.11700
C586        C  0.02609319  0.86972813  0.36572274    -0.25700
C587        C  0.01453358  0.88512436  0.33887812     0.36900
C588        C  0.01306649  0.86971765  0.31002470    -0.27300
F589        F  0.04110044  0.79160678  0.33279161    -0.19500
H590        H  0.04371539  0.82585778  0.38381677     0.16200
F591        F  0.00605173  0.91583724  0.34024592    -0.23200
H592        H  0.00561821  0.88281599  0.28956209     0.18100
C593        C  0.07868112  0.07228145  0.90101934    -0.27200
C594        C  0.08826263  0.04271056  0.88955060     0.06400
C595        C  0.08319451  0.01614277  0.90863893     0.26000
C596        C  0.06956194  0.01921325  0.93842032    -0.11700
C597        C  0.06139700  0.04886650  0.95063824    -0.25600
C598        C  0.06547502  0.07542866  0.93125607     0.36800
C599        C  0.10546049  0.03974518  0.85891941     0.06400
F600        F  0.09367347  0.98738339  0.89968801    -0.19400
H601        H  0.06722998  0.99832237  0.95279354     0.16200
F602        F  0.05876939  0.10464066  0.94219307    -0.23100
H603        H  0.08229135  0.09315450  0.88689230     0.18000
C604        C  0.09851615  0.01530964  0.83760201     0.26000
C605        C  0.11706548  0.01063898  0.81076239    -0.11700
C606        C  0.14225479  0.03092784  0.80355844    -0.25700
C607        C  0.14787929  0.05666386  0.82383617     0.36900
C608        C  0.13004786  0.06060992  0.85138670    -0.27300
F609        F  0.07342716  0.99612935  0.84239126    -0.19500
H610        H  0.11163160  0.99090997  0.79556260     0.16200
F611        F  0.16989953  0.07864754  0.81669908    -0.23200
H612        H  0.13570761  0.07992840  0.86703667     0.18100
C613        C  0.07778858  0.98606625  0.58994958    -0.27200
C614        C  0.09463397  0.96434763  0.60803524     0.06400
C615        C  0.09581372  0.93280624  0.59773893     0.26000
C616        C  0.08237734  0.92394837  0.56883021    -0.11700
C617        C  0.06775065  0.94637916  0.54968321    -0.25600
C618        C  0.06467496  0.97731745  0.56108360     0.36800
C619        C  0.11238651  0.97538050  0.63630448     0.06400
F620        F  0.11214282  0.91112784  0.61427731    -0.19400
H621        H  0.08577972  0.90021702  0.56021278     0.16200
F622        F  0.05067901  0.99965769  0.54326381    -0.23100
H623        H  0.07586398  0.01028449  0.59760894     0.18000
C624        C  0.13234917  0.00187390  0.63446856     0.26000
C625        C  0.14870577  0.01247148  0.66102584    -0.11700
C626        C  0.14560645  0.99702512  0.69004721    -0.25700
C627        C  0.12586521  0.97043730  0.69192222     0.36900
C628        C  0.10954412  0.95971931  0.66529515    -0.27300
F629        F  0.13652145  0.01726857  0.60680035    -0.19500
H630        H  0.16362430  0.03304341  0.65899590     0.16200
F631        F  0.12272201  0.95453416  0.71942150    -0.23200
H632        H  0.09433900  0.93936808  0.66743058     0.18100
C633        C  0.82763114  0.09418858  0.05063677    -0.27200
C634        C  0.85606826  0.09896817  0.03443121     0.06400
C635        C  0.85709913  0.12143738  0.01010701     0.26000
C636        C  0.83037352  0.13850165  0.00217958    -0.11700
C637        C  0.80207985  0.13406798  0.01853467    -0.25600
C638        C  0.80080260  0.11148646  0.04271321     0.36800
C639        C  0.88482746  0.08094406  0.04256379     0.06400
F640        F  0.88426714  0.12759103  0.99448471    -0.19400
H641        H  0.83185519  0.15540971  0.98323186     0.16200
F642        F  0.77383553  0.10668217  0.05911741    -0.23100
H643        H  0.82617384  0.07696670  0.06932361     0.18000
C644        C  0.89670859  0.08028647  0.07348462     0.26000
C645        C  0.92685755  0.06840668  0.07931964    -0.11700
C646        C  0.94555337  0.05721821  0.05442977    -0.25700
C647        C  0.93238481  0.05524482  0.02413053     0.36900
C648        C  0.90236183  0.06681956  0.01840767    -0.27300
F649        F  0.88044145  0.09360441  0.09752286    -0.19500
H650        H  0.93657515  0.07053460  0.10275107     0.16200
F651        F  0.94943082  0.04411273  0.99949078    -0.23200
H652        H  0.89342183  0.06627971  0.99457912     0.18100
C653        C  0.84060101  0.31974501  0.01509663    -0.27200
C654        C  0.84969984  0.29451115  0.03454019     0.06400
C655        C  0.87201786  0.29998133  0.05806158     0.26000
C656        C  0.88516424  0.32970053  0.06174012    -0.11700
C657        C  0.87760633  0.35453667  0.04125774    -0.25600
C658        C  0.85455034  0.34956516  0.01826873     0.36800
C659        C  0.83654681  0.26248446  0.02964275     0.06400
F660        F  0.88285864  0.27615670  0.07616497    -0.19400
H661        H  0.90285968  0.33273698  0.07974540     0.16200
F662        F  0.84686215  0.37273407  0.99782778    -0.23100
H663        H  0.82319059  0.31613744  0.99693667     0.18000
C664        C  0.82502222  0.24444164  0.05505485     0.26000
C665        C  0.80934165  0.21604436  0.04949134    -0.11700
C666        C  0.80448223  0.20551709  0.01866104    -0.25700
C667        C  0.81815639  0.22215309  0.99350761     0.36900
C668        C  0.83414957  0.25030739  0.99901952    -0.27300
F669        F  0.82601529  0.25563693  0.08496006    -0.19500
H670        H  0.79796057  0.20411657  0.06896221     0.16200
F671        F  0.81259782  0.21317074  0.96334164    -0.23200
H672        H  0.84321735  0.26346694  0.97914623     0.18100
C673        C  0.42314157  0.02066377  0.09472258    -0.27200
C674        C  0.40878268  0.04657174  0.10935398     0.06400
C675        C  0.41166383  0.07628497  0.09496637     0.26000
C676        C  0.42635185  0.07929634  0.06543324    -0.11700
C677        C  0.43822938  0.05278809  0.04958960    -0.25600
C678        C  0.43752537  0.02359883  0.06518977     0.36800
C679        C  0.38926764  0.04173203  0.13829952     0.06400
F680        F  0.39812321  0.10195675  0.10817087    -0.19400
H681        H  0.42613981  0.10195718  0.05387310     0.16200
F682        F  0.44921043  0.99745059  0.05112030    -0.23100
H683        H  0.42211190  0.99770379  0.10566619     0.18000
C684        C  0.36665290  0.01746133  0.13942247     0.26000
C685        C  0.34937011  0.01177409  0.16693532    -0.11700
C686        C  0.35358935  0.03047660  0.19383323    -0.25700
C687        C  0.37571081  0.05517419  0.19262136     0.36900
C688        C  0.39329011  0.06074520  0.16512125    -0.27300
F689        F  0.36111906  0.99919478  0.11378707    -0.19500
H690        H  0.33336990  0.99204230  0.16740094     0.16200
F691        F  0.38052193  0.07373454  0.21819184    -0.23200
H692        H  0.41055882  0.07949004  0.16502701     0.18100
C693        C  0.30269631  0.01351547  0.88357740    -0.27200
C694        C  0.30151360  0.02111303  0.85159724     0.06400
C695        C  0.32983235  0.02621446  0.83503910     0.26000
C696        C  0.35863482  0.02599511  0.85093892    -0.11700
C697        C  0.35945474  0.02073399  0.88349164    -0.25600
C698        C  0.33128633  0.01316504  0.89938418     0.36800
C699        C  0.27067603  0.02523705  0.83613754     0.06400
F700        F  0.32951691  0.03200471  0.80364179    -0.19400
H701        H  0.37998625  0.03157994  0.83818743     0.16200
F702        F  0.33123499  0.00645142  0.93061969    -0.23100
H703        H  0.28127649  0.00912912  0.89667871     0.18000
C704        C  0.24780608  0.00126385  0.83660060     0.26000
C705        C  0.22012137  0.00450845  0.81925514    -0.11700
C706        C  0.21486333  0.03166145  0.80134253    -0.25700
C707        C  0.23649620  0.05668820  0.80322526     0.36900
C708        C  0.26412011  0.05343918  0.82046475    -0.27300
F709        F  0.25336648  0.97374077  0.85164375    -0.19500
H710        H  0.20420296  0.98466848  0.81743364     0.16200
F711        F  0.23218289  0.08314231  0.78598406    -0.23200
H712        H  0.28104381  0.07251585  0.82055015     0.18100
C713        C  0.33336923  0.23441523  0.02161002    -0.27200
C714        C  0.33865968  0.22159997  0.99157846     0.06400
C715        C  0.33015796  0.23925493  0.96490726     0.26000
C716        C  0.31415757  0.26774301  0.96844035    -0.11700
C717        C  0.30665812  0.27906004  0.99852441    -0.25600
C718        C  0.31767871  0.26293606  0.02508396     0.36800
C719        C  0.35152959  0.18929650  0.98846326     0.06400
F720        F  0.33614190  0.22834714  0.93546529    -0.19400
H721        H  0.30538579  0.27962069  0.94775779     0.16200
F722        F  0.31028086  0.27318198  0.05446239    -0.23100
H723        H  0.33954740  0.22137053  0.04252843     0.18000
C724        C  0.37800413  0.18019161  0.00577438     0.26000
C725        C  0.39064892  0.15024812  0.00175320    -0.11700
C726        C  0.37726678  0.12877400  0.98052973    -0.25700
C727        C  0.35017651  0.13719580  0.96407926     0.36900
C728        C  0.33724463  0.16718281  0.96825481    -0.27300
F729        F  0.39294221  0.20089076  0.02499045    -0.19500
H730        H  0.41227563  0.14450014  0.01370105     0.16200
F731        F  0.33756834  0.11730556  0.94249986    -0.23200
H732        H  0.31647509  0.17340568  0.95512382     0.18100
C733        C  0.59263009  0.07475184  0.97325577    -0.27200
C734        C  0.60795594  0.09237877  0.94994450     0.06400
C735        C  0.59451035  0.09431105  0.91979743     0.26000
C736        C  0.56473837  0.08113174  0.91416682    -0.11700
C737        C  0.54824801  0.06592927  0.93853115    -0.25600
C738        C  0.56316729  0.06155976  0.96765947     0.36800
C739        C  0.63627695  0.11077067  0.95865176     0.06400
F740        F  0.60890301  0.11109287  0.89671891    -0.19400
H741        H  0.55351935  0.08515924  0.89170574     0.16200
F742        F  0.54820969  0.04640059  0.99151646    -0.23100
H743        H  0.60288639  0.07253771  0.99643525     0.18000
C744        C  0.63442638  0.13349350  0.98267461     0.26000
C745        C  0.66144889  0.14886943  0.99327584    -0.11700
C746        C  0.69087514  0.14224857  0.97996209    -0.25700
C747        C  0.69260912  0.11996054  0.95538447     0.36900
C748        C  0.66547831  0.10447969  0.94477982    -0.27300
F749        F  0.60638868  0.14061068  0.99609845    -0.19500
H750        H  0.65941132  0.16537893  0.01252509     0.16200
F751        F  0.72054087  0.11312528  0.94163892    -0.23200
H752        H  0.66736145  0.08700163  0.92630738     0.18100
C753        C  0.49029121  0.15589687  0.82580702    -0.27200
C754        C  0.46721803  0.15280328  0.80227098     0.06400
C755        C  0.43961664  0.13598619  0.80930508     0.26000
C756        C  0.43578322  0.12179567  0.83864721    -0.11700
C757        C  0.45940724  0.12358121  0.86158729    -0.25600
C758        C  0.48651329  0.14135941  0.85522233     0.36800
C759        C  0.47275553  0.16578929  0.77014883     0.06400
F760        F  0.41724608  0.13125852  0.78713604    -0.19400
H761        H  0.41483697  0.10787631  0.84288134     0.16200
F762        F  0.51028342  0.14266349  0.87635087    -0.23100
H763        H  0.51170272  0.16887178  0.82107330     0.18000
C764        C  0.44961733  0.18334378  0.75450776     0.26000
C765        C  0.45604295  0.19694483  0.72520774    -0.11700
C766        C  0.48585000  0.19425988  0.71136474    -0.25700
C767        C  0.50864571  0.17596865  0.72645886     0.36900
C768        C  0.50194359  0.16148743  0.75527216    -0.27300
F769        F  0.42183200  0.18985106  0.76872191    -0.19500
H770        H  0.43877161  0.21233860  0.71482355     0.16200
F771        F  0.53834253  0.17471326  0.71493730    -0.23200
H772        H  0.52013345  0.14802981  0.76668833     0.18100
C773        C  0.42830223  0.98815154  0.40700955    -0.27200
C774        C  0.41237676  0.96608867  0.38823916     0.06400
C775        C  0.41127605  0.93450051  0.39827748     0.26000
C776        C  0.42346759  0.92595998  0.42774933    -0.11700
C777        C  0.43681411  0.94875339  0.44764892    -0.25600
C778        C  0.44027811  0.97968991  0.43638678     0.36800
C779        C  0.39476181  0.97684506  0.35992329     0.06400
F780        F  0.39604441  0.91244436  0.38090915    -0.19400
H781        H  0.41999682  0.90215098  0.43611622     0.16200
F782        F  0.45347806  0.00227606  0.45475638    -0.23100
H783        H  0.43018436  0.01241862  0.39952888     0.18000
C784        C  0.37374707  0.00226347  0.36215752     0.26000
C785        C  0.35649244  0.01186484  0.33593060    -0.11700
C786        C  0.35965739  0.99643523  0.30686120    -0.25700
C787        C  0.38097447  0.97135643  0.30440049     0.36900
C788        C  0.39820227  0.96160128  0.33072475    -0.27300
F789        F  0.36912751  0.01728491  0.39000164    -0.19500
H790        H  0.34050787  0.03141803  0.33835868     0.16200
F791        F  0.38452234  0.95574474  0.27674243    -0.23200
H792        H  0.41430462  0.94213292  0.32829165     0.18100
C793        C  0.38037090  0.80439014  0.50006982    -0.27200
C794        C  0.35226484  0.79767895  0.51597324     0.06400
C795        C  0.33676413  0.82224986  0.53206176     0.26000
C796        C  0.35023210  0.85240867  0.53356506    -0.11700
C797        C  0.37913014  0.85837787  0.51893409    -0.25600
C798        C  0.39361279  0.83437850  0.50141429     0.36800
C799        C  0.33959732  0.76502544  0.51579216     0.06400
F800        F  0.30894281  0.81696642  0.54679011    -0.19400
H801        H  0.33908194  0.87047744  0.54763417     0.16200
F802        F  0.42168998  0.83954822  0.48708126    -0.23100
H803        H  0.39285436  0.78602239  0.48763987     0.18000
C804        C  0.33696884  0.74807939  0.48742624     0.26000
C805        C  0.32202205  0.71879776  0.48695344    -0.11700
C806        C  0.30912590  0.70598687  0.51454712    -0.25700
C807        C  0.31402055  0.72157188  0.54328817     0.36900
C808        C  0.32930526  0.75080245  0.54388856    -0.27300
F809        F  0.34612360  0.76104241  0.45968773    -0.19500
H810        H  0.31749757  0.70766505  0.46445721     0.16200
F811        F  0.30115643  0.71009411  0.57020527    -0.23200
H812        H  0.33181456  0.76299944  0.56613504     0.18100
C813        C  0.33056466  0.99522352  0.65531150    -0.27200
C814        C  0.30414995  0.97587821  0.65006359     0.06400
C815        C  0.30747299  0.94899887  0.63115082     0.26000
C816        C  0.33628849  0.94214903  0.61722345    -0.11700
C817        C  0.36236511  0.96217598  0.62120877    -0.25600
C818        C  0.35948677  0.98850121  0.64098624     0.36800
C819        C  0.27305946  0.98440292  0.66340323     0.06400
F820        F  0.28239525  0.93043324  0.62436966    -0.19400
H821        H  0.33777648  0.92181979  0.60188410     0.16200
F822        F  0.38382486  0.00882678  0.64472637    -0.23100
H823        H  0.32856810  0.01600351  0.66993848     0.18000
C824        C  0.25476809  0.96222045  0.67995813     0.26000
C825        C  0.22661325  0.97122609  0.69422663    -0.11700
C826        C  0.21654625  0.00251694  0.69285277    -0.25700
C827        C  0.23398304  0.02436550  0.67517893     0.36900
C828        C  0.26186926  0.01527860  0.66038014    -0.27300
F829        F  0.26534553  0.93256045  0.68467214    -0.19500
H830        H  0.21414875  0.95445625  0.70887149     0.16200
F831        F  0.22531319  0.05501667  0.67440329    -0.23200
H832        H  0.27537236  0.03267883  0.64751836     0.18100
C833        C  0.48227765  0.08818037  0.57166451    -0.27200
C834        C  0.45935084  0.10480978  0.58855738     0.06400
C835        C  0.42889252  0.09197984  0.59083713     0.26000
C836        C  0.42238440  0.06196352  0.57851775    -0.11700
C837        C  0.44615333  0.04435997  0.56387893    -0.25600
C838        C  0.47584088  0.05828564  0.55951091     0.36800
C839        C  0.46826523  0.13397909  0.60587377     0.06400
F840        F  0.40620206  0.10728821  0.60718992    -0.19400
H841        H  0.39952230  0.05150279  0.58266853     0.16200
F842        F  0.49919935  0.04216943  0.54498058    -0.23100
H843        H  0.50569879  0.09784156  0.56906137     0.18000
C844        C  0.49359516  0.13374694  0.62706027     0.26000
C845        C  0.50199545  0.16100071  0.64356513    -0.11700
C846        C  0.48545004  0.18909536  0.63934544    -0.25700
C847        C  0.46033397  0.18950005  0.61790896     0.36900
C848        C  0.45169248  0.16210116  0.60155237    -0.27300
F849        F  0.50998070  0.10696504  0.63218633    -0.19500
H850        H  0.52183686  0.16025880  0.65929571     0.16200
F851        F  0.44399730  0.21634122  0.61300003    -0.23200
H852        H  0.43227678  0.16291200  0.58522342     0.18100
C853        C  0.40724123  0.56326537  0.52348736    -0.27200
C854        C  0.39207496  0.58022455  0.54742810     0.06400
C855        C  0.40548794  0.58033504  0.57777061     0.26000
C856        C  0.43509669  0.56668186  0.58284829    -0.11700
C857        C  0.45161603  0.55260854  0.55784351    -0.25600
C858        C  0.43653989  0.54963607  0.52852478     0.36800
C859        C  0.36384119  0.59942828  0.53952359     0.06400
F860        F  0.39133648  0.59588689  0.60180588    -0.19400
H861        H  0.44624449  0.56963461  0.60554119     0.16200
F862        F  0.45133163  0.53570052  0.50385387    -0.23100
H863        H  0.39702283  0.56186367  0.50021852     0.18000
C864        C  0.36430035  0.61969666  0.51324442     0.26000
C865        C  0.33759143  0.63682516  0.50489498    -0.11700
C866        C  0.30980082  0.63440272  0.52255067    -0.25700
C867        C  0.30939119  0.61457205  0.54908204     0.36900
C868        C  0.33615937  0.59737585  0.55749741    -0.27300
F869        F  0.39079656  0.62328762  0.49576947    -0.19500
H870        H  0.33852659  0.65175299  0.48430897     0.16200
F871        F  0.28313391  0.61208231  0.56706563    -0.23200
H872        H  0.33507117  0.58201201  0.57776259     0.18100
C873        C  0.57752178  0.55896493  0.39586300    -0.27200
C874        C  0.58459090  0.52789422  0.38656063     0.06400
C875        C  0.57713147  0.50330291  0.40754454     0.26000
C876        C  0.56476595  0.50985448  0.43732905    -0.11700
C877        C  0.56032404  0.54097112  0.44757467    -0.25600
C878        C  0.56574325  0.56552495  0.42611639     0.36800
C879        C  0.60282179  0.52163010  0.35692196     0.06400
F880        F  0.58470325  0.47307069  0.40083943    -0.19400
H881        H  0.56112581  0.49049221  0.45349236     0.16200
F882        F  0.56270542  0.59593645  0.43532019    -0.23100
H883        H  0.58264839  0.57842311  0.38025711     0.18000
C884        C  0.59652951  0.49534837  0.33763208     0.26000
C885        C  0.61623234  0.48807443  0.31217289    -0.11700
C886        C  0.64179422  0.50759040  0.30402343    -0.25700
C887        C  0.64666317  0.53508183  0.32198312     0.36900
C888        C  0.62796071  0.54148474  0.34842591    -0.27300
F889        F  0.57081406  0.47709125  0.34268518    -0.19500
H890        H  0.61114261  0.46716947  0.29849799     0.16200
F891        F  0.66846041  0.55669383  0.31332013    -0.23200
H892        H  0.63331458  0.56215119  0.36235220     0.18100
C893        C  0.57810244  0.39808602  0.58728625    -0.27200
C894        C  0.54801077  0.38487144  0.58332676     0.06400
C895        C  0.52561801  0.40182561  0.56612258     0.26000
C896        C  0.53221808  0.43233106  0.55582116    -0.11700
C897        C  0.56136015  0.44651426  0.56197039    -0.25600
C898        C  0.58481136  0.42868194  0.57664318     0.36800
C899        C  0.53876963  0.35551337  0.60023088     0.06400
F900        F  0.49672968  0.38948137  0.56063322    -0.19400
H901        H  0.51379077  0.44569034  0.54462949     0.16200
F902        F  0.61297470  0.44191492  0.58362797    -0.23100
H903        H  0.59571707  0.38562455  0.60059123     0.18000
C904        C  0.55708802  0.32807877  0.59886356     0.26000
C905        C  0.54833664  0.30133509  0.61622563    -0.11700
C906        C  0.52136118  0.30156027  0.63534843    -0.25700
C907        C  0.50267399  0.32863792  0.63603952     0.36900
C908        C  0.51145734  0.35532239  0.61892010    -0.27300
F909        F  0.58312520  0.32698657  0.58043961    -0.19500
H910        H  0.56280008  0.28049631  0.61503214     0.16200
F911        F  0.47558587  0.32913204  0.65283914    -0.23200
H912        H  0.49698517  0.37612255  0.62059119     0.18100
C913        C  0.66410257  0.33055388  0.99255665    -0.27200
C914        C  0.66133225  0.30687604  0.96938319     0.06400
C915        C  0.64441336  0.31335986  0.94191822     0.26000
C916        C  0.62951623  0.34213770  0.93838566    -0.11700
C917        C  0.63022348  0.36495258  0.96239408    -0.25600
C918        C  0.64863232  0.35947392  0.98914645     0.36800
C919        C  0.67384627  0.27475885  0.97472560     0.06400
F920        F  0.63989623  0.29093142  0.91959511    -0.19400
H921        H  0.61545028  0.34574796  0.91751540     0.16200
F922        F  0.64965758  0.38081698  0.01290760    -0.23100
H923        H  0.67726218  0.32615861  0.01384016     0.18000
C924        C  0.69097853  0.25890995  0.95118005     0.26000
C925        C  0.70230622  0.22861690  0.95654582    -0.11700
C926        C  0.69791578  0.21400091  0.98581078    -0.25700
C927        C  0.68031147  0.22952593  0.00912153     0.36900
C928        C  0.66803412  0.25940375  0.00341988    -0.27300
F929        F  0.69892247  0.27358621  0.92393118    -0.19500
H930        H  0.71737604  0.21786978  0.93902118     0.16200
F931        F  0.67754019  0.21704415  0.03838295    -0.23200
H932        H  0.65481111  0.27100614  0.02185403     0.18100
C933        C  0.51503785  0.34050598  0.82051971    -0.27200
C934        C  0.53607127  0.34827988  0.79596651     0.06400
C935        C  0.56062046  0.36946737  0.80227474     0.26000
C936        C  0.56355803  0.38291816  0.83210362    -0.11700
C937        C  0.54186002  0.37619252  0.85627322    -0.25600
C938        C  0.51777325  0.35439838  0.85038868     0.36800
C939        C  0.53149305  0.33495631  0.76382575     0.06400
F940        F  0.58067087  0.37877539  0.77917874    -0.19400
H941        H  0.58224718  0.39979689  0.83594060     0.16200
F942        F  0.49579433  0.34806214  0.87269807    -0.23100
H943        H  0.49600361  0.32408682  0.81635757     0.18000
C944        C  0.55650036  0.32157372  0.74664706     0.26000
C945        C  0.55075361  0.30566330  0.71833382    -0.11700
C946        C  0.52007586  0.30225864  0.70703320    -0.25700
C947        C  0.49544446  0.31725677  0.72310659     0.36900
C948        C  0.50121591  0.33375856  0.75094786    -0.27300
F949        F  0.58593653  0.32100153  0.75864425    -0.19500
H950        H  0.56977753  0.29313250  0.70701313     0.16200
F951        F  0.46529544  0.31277204  0.71390994    -0.23200
H952        H  0.48161759  0.34408596  0.76345209     0.18100
C953        C  0.60874556  0.43668883  0.16383200    -0.27200
C954        C  0.60635304  0.45681526  0.13767169     0.06400
C955        C  0.62302976  0.48561859  0.13845387     0.26000
C956        C  0.64115731  0.49399323  0.16464230    -0.11700
C957        C  0.64333202  0.47400265  0.19071089    -0.25600
C958        C  0.62698994  0.44515805  0.19006926     0.36800
C959        C  0.58730856  0.44788525  0.10930552     0.06400
F960        F  0.62242323  0.50555437  0.11356648    -0.19400
H961        H  0.65330365  0.51640945  0.16470460     0.16200
F962        F  0.62891357  0.42505855  0.21474567    -0.23100
H963        H  0.59616684  0.41451774  0.16417302     0.18000
C964        C  0.58982332  0.41797909  0.09497773     0.26000
C965        C  0.57677112  0.41237938  0.06507930    -0.11700
C966        C  0.56117333  0.43644145  0.04890523    -0.25700
C967        C  0.55582289  0.46507033  0.06467497     0.36900
C968        C  0.56846692  0.47052229  0.09455907    -0.27300
F969        F  0.60725069  0.39506096  0.10840373    -0.19500
H970        H  0.58148184  0.39023537  0.05337758     0.16200
F971        F  0.54027959  0.48872034  0.05015278    -0.23200
H972        H  0.56490111  0.49326462  0.10547385     0.18100
C973        C  0.40727172  0.41955496  0.97691823    -0.27200
C974        C  0.39231008  0.39934200  0.95546838     0.06400
C975        C  0.40649624  0.39407728  0.92591700     0.26000
C976        C  0.43617844  0.40697020  0.91912535    -0.11700
C977        C  0.45208274  0.42515298  0.94169357    -0.25600
C978        C  0.43687123  0.43223592  0.97020717     0.36800
C979        C  0.36346063  0.38197527  0.96530497     0.06400
F980        F  0.39290660  0.37441864  0.90472305    -0.19400
H981        H  0.44779303  0.40065005  0.89729508     0.16200
F982        F  0.45149829  0.45005505  0.99231165    -0.23100
H983        H  0.39656315  0.42441165  0.99956758     0.18000
C984        C  0.36344009  0.36376418  0.99296854     0.26000
C985        C  0.33632153  0.34772396  0.00263688    -0.11700
C986        C  0.30860202  0.34943076  0.98500999    -0.25700
C987        C  0.30859844  0.36754630  0.95726725     0.36900
C988        C  0.33584645  0.38347656  0.94745571    -0.27300
F989        F  0.38988768  0.36107221  0.01042029    -0.19500
H990        H  0.33688221  0.33415951  0.02417399     0.16200
F991        F  0.28233831  0.36948377  0.93943879    -0.23200
H992        H  0.33529074  0.39732818  0.92610036     0.18100
C993        C  0.86337676  0.86998143  0.50153817    -0.27200
C994        C  0.86429064  0.88644601  0.47278722     0.06400
C995        C  0.83768230  0.88513183  0.45322900     0.26000
C996        C  0.81105360  0.86778551  0.46230580    -0.11700
C997        C  0.81041043  0.85122749  0.49087319    -0.25600
C998        C  0.83672624  0.85274428  0.51059888     0.36800
C999        C  0.89335755  0.90397288  0.46321598     0.06400
F1000       F  0.83710362  0.90120061  0.42568406    -0.19400
H1001       H  0.79078192  0.86730515  0.44701564     0.16200
F1002       F  0.83636625  0.83820871  0.53899292    -0.23100
H1003       H  0.88352326  0.87019209  0.51698011     0.18000
C1004       C  0.90962873  0.92304136  0.48491947     0.26000
C1005       C  0.93924513  0.93534584  0.47740638    -0.11700
C1006       C  0.95320504  0.92948026  0.44797757    -0.25700
C1007       C  0.93599720  0.91254021  0.42534161     0.36900
C1008       C  0.90644643  0.89983740  0.43299249    -0.27300
F1009       F  0.89740294  0.92894276  0.51386266    -0.19500
H1010       H  0.95211463  0.94813309  0.49531002     0.16200
F1011       F  0.94903193  0.90548345  0.39701572    -0.23200
H1012       H  0.89470290  0.88507685  0.41586354     0.18100
C1013       C  0.65341997  0.86835764  0.55915383    -0.27200
C1014       C  0.64251125  0.89040011  0.53713863     0.06400
C1015       C  0.66080085  0.89596097  0.50994228     0.26000
C1016       C  0.68773849  0.87822102  0.50387640    -0.11700
C1017       C  0.69767907  0.85501435  0.52501152    -0.25600
C1018       C  0.68083837  0.85104815  0.55334992     0.36800
C1019       C  0.61107989  0.90552746  0.54130127     0.06400
F1020       F  0.65265397  0.91858751  0.48907060    -0.19400
H1021       H  0.70067245  0.88234399  0.48227556     0.16200
F1022       F  0.69104013  0.83070213  0.57559092    -0.23100
H1023       H  0.64022780  0.86385337  0.58051090     0.18000
C1024       C  0.58990873  0.90623630  0.51602729     0.26000
C1025       C  0.55984090  0.91832008  0.51997937    -0.11700
C1026       C  0.54903662  0.92886868  0.54952673    -0.25700
C1027       C  0.57024385  0.92882918  0.57488673     0.36900
C1028       C  0.60100168  0.91738011  0.57070011    -0.27300
F1029       F  0.59726404  0.89297975  0.48787978    -0.19500
H1030       H  0.54427575  0.91752794  0.49990711     0.16200
F1031       F  0.56094592  0.93836531  0.60393622    -0.23200
H1032       H  0.61671896  0.91706143  0.59064720     0.18100
C1033       C  0.65662314  0.75096720  0.50079511    -0.27200
C1034       C  0.66119795  0.72716522  0.52322975     0.06400
C1035       C  0.68202149  0.73259814  0.54818094     0.26000
C1036       C  0.69974747  0.76024139  0.54919881    -0.11700
C1037       C  0.69762220  0.78261837  0.52499228    -0.25600
C1038       C  0.67485179  0.77848361  0.50151446     0.36800
C1039       C  0.64490396  0.69644911  0.52025181     0.06400
F1040       F  0.68629136  0.71051348  0.57076710    -0.19400
H1041       H  0.71748131  0.76280933  0.56723465     0.16200
F1042       F  0.67262684  0.79932964  0.47749830    -0.23100
H1043       H  0.64040486  0.74732935  0.48155763     0.18000
C1044       C  0.61213583  0.69515614  0.51889537     0.26000
C1045       C  0.59676451  0.66618493  0.51880075    -0.11700
C1046       C  0.61361440  0.63775786  0.52019944    -0.25700
C1047       C  0.64651433  0.63893805  0.51967844     0.36900
C1048       C  0.66200626  0.66815555  0.51987066    -0.27300
F1049       F  0.59489263  0.72190477  0.51956149    -0.19500
H1050       H  0.57135240  0.66608105  0.51886858     0.16200
F1051       F  0.66358515  0.61212697  0.52073734    -0.23200
H1052       H  0.68739612  0.66875420  0.52042021     0.18100
C1053       C  0.82367425  0.73433200  0.46483051    -0.27200
C1054       C  0.83751928  0.72049825  0.49136322     0.06400
C1055       C  0.83753531  0.73725167  0.51997237     0.26000
C1056       C  0.82250710  0.76632109  0.52228924    -0.11700
C1057       C  0.80709809  0.77929995  0.49627974    -0.25600
C1058       C  0.80843236  0.76337841  0.46726234     0.36800
C1059       C  0.85200666  0.68878368  0.48917615     0.06400
F1060       F  0.84983923  0.72437748  0.54636508    -0.19400
H1061       H  0.82034402  0.77730792  0.54520626     0.16200
F1062       F  0.79241118  0.77446413  0.44210164    -0.23100
H1063       H  0.82375471  0.72212051  0.44244376     0.18000
C1064       C  0.83598046  0.66289411  0.47577602     0.26000
C1065       C  0.85099269  0.63370269  0.47238253    -0.11700
C1066       C  0.88214376  0.63012645  0.48208017    -0.25700
C1067       C  0.89757781  0.65561752  0.49660064     0.36900
C1068       C  0.88263531  0.68449475  0.50013703    -0.27300
F1069       F  0.80601466  0.66593231  0.46562963    -0.19500
H1070       H  0.83891294  0.61448695  0.46076686     0.16200
F1071       F  0.92776196  0.65290872  0.50629379    -0.23200
H1072       H  0.89551978  0.70395299  0.51041286     0.18100
C1073       C  0.45413911  0.84639501  0.86967277    -0.27200
C1074       C  0.47582900  0.85736364  0.89208969     0.06400
C1075       C  0.50338449  0.83986694  0.89692985     0.26000
C1076       C  0.50980730  0.81342590  0.87839299    -0.11700
C1077       C  0.48851367  0.80299982  0.85539226    -0.25600
C1078       C  0.46007001  0.81924516  0.85195773     0.36800
C1079       C  0.47002738  0.88762406  0.90906201     0.06400
F1080       F  0.52385727  0.84781165  0.92003375    -0.19400
H1081       H  0.53152113  0.80088964  0.88217405     0.16200
F1082       F  0.43746822  0.80835633  0.83235343    -0.23100
H1083       H  0.43254484  0.85902119  0.86561140     0.18000
C1084       C  0.49402203  0.91028715  0.91196615     0.26000
C1085       C  0.48754188  0.93998441  0.92429314    -0.11700
C1086       C  0.45687458  0.94849856  0.93307974    -0.25700
C1087       C  0.43308771  0.92553412  0.93165006     0.36900
C1088       C  0.43972281  0.89535757  0.91993484    -0.27300
F1089       F  0.52320670  0.90497389  0.90031119    -0.19500
H1090       H  0.50634845  0.95719543  0.92485035     0.16200
F1091       F  0.40302731  0.93286808  0.93911145    -0.23200
H1092       H  0.42080217  0.87838843  0.91816421     0.18100
C1093       C  0.56682792  0.59749696  0.92312558    -0.27200
C1094       C  0.53778718  0.60631717  0.91026128     0.06400
C1095       C  0.51255853  0.58498949  0.91200777     0.26000
C1096       C  0.51648274  0.55543503  0.92548266    -0.11700
C1097       C  0.54587813  0.54569668  0.93670196    -0.25600
C1098       C  0.57091566  0.56746429  0.93629918     0.36800
C1099       C  0.53387768  0.63674210  0.89338221     0.06400
F1100       F  0.48460843  0.59168537  0.89843189    -0.19400
H1101       H  0.49676638  0.53928346  0.92509329     0.16200
F1102       F  0.59977815  0.55913515  0.94663229    -0.23100
H1103       H  0.58658982  0.61355412  0.92212972     0.18000
C1104       C  0.50782605  0.65593760  0.89963021     0.26000
C1105       C  0.50177462  0.68215121  0.88091130    -0.11700
C1106       C  0.52189085  0.69054367  0.85596484    -0.25700
C1107       C  0.54906361  0.67244862  0.85085978     0.36900
C1108       C  0.55477375  0.64565252  0.86924602    -0.27300
F1109       F  0.48809186  0.64930689  0.92389908    -0.19500
H1110       H  0.48099651  0.69589350  0.88582875     0.16200
F1111       F  0.57045096  0.68092889  0.82871301    -0.23200
H1112       H  0.57521820  0.63147231  0.86419541     0.18100
C1113       C  0.44326688  0.85332665  0.68154925    -0.27200
C1114       C  0.47263571  0.84292407  0.69202522     0.06400
C1115       C  0.49824697  0.84402084  0.67077365     0.26000
C1116       C  0.49472362  0.85717442  0.64064598    -0.11700
C1117       C  0.46560398  0.86892160  0.63112020    -0.25600
C1118       C  0.43971777  0.86594573  0.65152043     0.36800
C1119       C  0.47554041  0.82985163  0.72452815     0.06400
F1120       F  0.52666039  0.83250056  0.67903220    -0.19400
H1121       H  0.51505845  0.85972065  0.62548085     0.16200
F1122       F  0.41114947  0.87692489  0.64291133    -0.23100
H1123       H  0.42305071  0.85266093  0.69704729     0.18000
C1124       C  0.50130880  0.83689187  0.74415341     0.26000
C1125       C  0.50512020  0.82103377  0.77284985    -0.11700
C1126       C  0.48295952  0.79861844  0.78276582    -0.25700
C1127       C  0.45566492  0.79418662  0.76482368     0.36900
C1128       C  0.45215600  0.80942339  0.73601574    -0.27300
F1129       F  0.52322302  0.85838885  0.73530145    -0.19500
H1130       H  0.52650518  0.82447946  0.78612509     0.16200
F1131       F  0.43397894  0.77239903  0.77361396    -0.23200
H1132       H  0.43190942  0.80364283  0.72179215     0.18100
C1133       C  0.55047809  0.68560923  0.73240772    -0.27200
C1134       C  0.52959364  0.66123078  0.72453330     0.06400
C1135       C  0.50794394  0.65085175  0.74758671     0.26000
C1136       C  0.50475496  0.66731402  0.77613128    -0.11700
C1137       C  0.52390885  0.69345515  0.78245988    -0.25600
C1138       C  0.54806207  0.70115464  0.76116528     0.36800
C1139       C  0.53054243  0.64777210  0.69206050     0.06400
F1140       F  0.48931465  0.62546326  0.74222684    -0.19400
H1141       H  0.48593576  0.66110435  0.79218015     0.16200
F1142       F  0.56673945  0.72655103  0.76653177    -0.23100
H1143       H  0.56755728  0.69410129  0.71548313     0.18000
C1144       C  0.50297360  0.64164389  0.67465327     0.26000
C1145       C  0.50480612  0.62831986  0.64442045    -0.11700
C1146       C  0.53405028  0.62153116  0.63094063    -0.25700
C1147       C  0.56146173  0.62966335  0.64734801     0.36900
C1148       C  0.55969577  0.64237637  0.67754933    -0.27300
F1149       F  0.47429513  0.64835960  0.68678515    -0.19500
H1150       H  0.48343877  0.62167555  0.63233729     0.16200
F1151       F  0.59011659  0.62345073  0.63478249    -0.23200
H1152       H  0.58133502  0.64700780  0.69002702     0.18100
C1153       C  0.92682322  0.46704648  0.90499746    -0.27200
C1154       C  0.90789083  0.44426662  0.89034385     0.06400
C1155       C  0.90459872  0.41457018  0.90474494     0.26000
C1156       C  0.91774556  0.40900449  0.93449955    -0.11700
C1157       C  0.93415623  0.43296079  0.95030578    -0.25600
C1158       C  0.93961914  0.46161587  0.93470088     0.36800
C1159       C  0.88980366  0.45277255  0.86162935     0.06400
F1160       F  0.88644599  0.39192496  0.89141286    -0.19400
H1161       H  0.91268906  0.38700529  0.94633885     0.16200
F1162       F  0.95554525  0.48522903  0.94920437    -0.23100
H1163       H  0.93043897  0.48977110  0.89406661     0.18000
C1164       C  0.87201121  0.48064083  0.86091887     0.26000
C1165       C  0.85533252  0.48897527  0.83392453    -0.11700
C1166       C  0.85579004  0.46971986  0.80712094    -0.25700
C1167       C  0.87330421  0.44175377  0.80778010     0.36900
C1168       C  0.89006222  0.43335563  0.83482675    -0.27300
F1169       F  0.87030798  0.49965397  0.88655950    -0.19500
H1170       H  0.84232959  0.51075789  0.83384006     0.16200
F1171       F  0.87398327  0.42245084  0.78231320    -0.23200
H1172       H  0.90359778  0.41187908  0.83468467     0.18100
C1173       C  0.89742782  0.53708241  0.66835802    -0.27200
C1174       C  0.89562845  0.51927784  0.64054074     0.06400
C1175       C  0.87584695  0.49260986  0.63987836     0.26000
C1176       C  0.85804887  0.48430285  0.66639726    -0.11700
C1177       C  0.85983833  0.50221352  0.69407515    -0.25600
C1178       C  0.87982978  0.52858127  0.69493931     0.36800
C1179       C  0.91341772  0.52907239  0.61194066     0.06400
F1180       F  0.87298723  0.47512835  0.61327284    -0.19400
H1181       H  0.84282175  0.46387406  0.66535316     0.16200
F1182       F  0.88176020  0.54651011  0.72132948    -0.23100
H1183       H  0.91250712  0.55761346  0.66947645     0.18000
C1184       C  0.91023933  0.55956377  0.59947715     0.26000
C1185       C  0.92346580  0.56711957  0.57014996    -0.11700
C1186       C  0.93975715  0.54435002  0.55268705    -0.25700
C1187       C  0.94490422  0.51465613  0.56623063     0.36900
C1188       C  0.93194664  0.50719409  0.59560701    -0.27300
F1189       F  0.89205583  0.58116238  0.61428876    -0.19500
H1190       H  0.91853661  0.58984642  0.55985850     0.16200
F1191       F  0.96086667  0.49220846  0.55012433    -0.23200
H1192       H  0.93524346  0.48379504  0.60501391     0.18100
C1193       C  0.67060976  0.47046081  0.83682002    -0.27200
C1194       C  0.69596940  0.48482229  0.85252875     0.06400
C1195       C  0.69068309  0.49914166  0.88187414     0.26000
C1196       C  0.66134589  0.49656094  0.89635545    -0.11700
C1197       C  0.63670389  0.48025823  0.88162269    -0.25600
C1198       C  0.64109827  0.46821909  0.85123703     0.36800
C1199       C  0.72797844  0.48346864  0.83879963     0.06400
F1200       F  0.71439312  0.51359926  0.89757490    -0.19400
H1201       H  0.65828225  0.50585301  0.91992500     0.16200
F1202       F  0.61777097  0.45204928  0.83669764    -0.23100
H1203       H  0.67400298  0.45995811  0.81382922     0.18000
C1204       C  0.74031531  0.45475141  0.82795016     0.26000
C1205       C  0.76875923  0.45414312  0.81147078    -0.11700
C1206       C  0.78535569  0.48207082  0.80575542    -0.25700
C1207       C  0.77437110  0.51035545  0.81885359     0.36900
C1208       C  0.74592232  0.51100673  0.83529522    -0.27300
F1209       F  0.72416204  0.42748446  0.83208524    -0.19500
H1210       H  0.77650211  0.43231014  0.80089636     0.16200
F1211       F  0.78953004  0.53784742  0.81282273    -0.23200
H1212       H  0.73695022  0.53336719  0.84347279     0.18100
C1213       C  0.69982999  0.54810601  0.62356013    -0.27200
C1214       C  0.70286434  0.52408539  0.64579009     0.06400
C1215       C  0.67599947  0.50667174  0.65457567     0.26000
C1216       C  0.64708852  0.51210777  0.63996814    -0.11700
C1217       C  0.64444130  0.53504144  0.61646314    -0.25600
C1218       C  0.67107134  0.55361045  0.60900917     0.36800
C1219       C  0.73396126  0.51761284  0.65996699     0.06400
F1220       F  0.67770864  0.48442739  0.67734576    -0.19400
H1221       H  0.62706479  0.49764312  0.64628031     0.16200
F1222       F  0.66961907  0.57678317  0.58712166    -0.23100
H1223       H  0.72003229  0.56214346  0.61682359     0.18000
C1224       C  0.74599352  0.48688005  0.66073534     0.26000
C1225       C  0.77308223  0.48035841  0.67794224    -0.11700
C1226       C  0.78877439  0.50438183  0.69427211    -0.25700
C1227       C  0.77839857  0.53550374  0.69120869     0.36900
C1228       C  0.75126079  0.54206551  0.67403059    -0.27300
F1229       F  0.73080698  0.46296094  0.64596507    -0.19500
H1230       H  0.78042489  0.45616002  0.68057979     0.16200
F1231       F  0.79269819  0.55899416  0.70748079    -0.23200
H1232       H  0.74261843  0.56596057  0.67346450     0.18100
loop_ 
_geom_bond_atom_site_label_1 
_geom_bond_atom_site_label_2 
_geom_bond_distance 
_geom_bond_site_symmetry_2 
_ccdc_geom_bond_type 
C1            C2   1.411       .  A
C1            C6   1.393       .  A
C1         C1226   1.476       .  S
C2            C3   1.413       .  A
C2         C1177   1.483       .  S
C3            C4   1.413       .  A
C3            H8   1.084       .  S
C4            C5   1.413       .  A
C4         C1166   1.487       .  S
C5            C6   1.395       .  A
C5         C1206   1.474       .  S
C6            H7   1.087       .  S
C9           C10   1.417       .  A
C9           C14   1.396       .  A
C9         C1137   1.480       .  S
C10          C11   1.416       .  A
C10        C1106   1.495       .  S
C11          C12   1.415       .  A
C11          H16   1.084       .  S
C12          C13   1.415       .  A
C12        C1077   1.492       .  S
C13          C14   1.393       .  A
C13        C1126   1.482       .  S
C14          H15   1.087       .  S
C17          C18   1.414       .  A
C17          C22   1.415       .  A
C17         C997   1.488       .  S
C18          C19   1.392       .  A
C18        C1057   1.479       .  S
C19          C20   1.396       .  A
C19          H24   1.087       .  S
C20          C21   1.417       .  A
C20        C1037   1.481       .  S
C21          C22   1.418       .  A
C21        C1017   1.495       .  S
C22          H23   1.084       .  S
O25          C40   1.257   1_556  A
O25         Al33   1.877       .  S
C26         C937   1.482       .  S
C26          O36   1.254       .  A
C26          O27   1.275       .  A
O27         Al29   1.980       .  S
O28          C30   1.255       .  A
O28         Al29   1.846       .  S
Al29         O37   1.879       .  S
Al29         O39   1.980       .  S
Al29         O38   1.767       .  S
C30         C917   1.479       .  S
C30          O43   1.275       .  A
O31          C41   1.255       .  A
O31         Al33   1.857       .  S
O32          C45   1.258       .  A
O32         Al42   1.870       .  S
Al33         O46   1.969       .  S
Al33         O43   1.982       .  S
Al33         O38   1.770       .  S
O34          C41   1.271       .  A
O34         Al42   1.961       .  S
O35          C44   1.273       .  A
O35         Al42   1.972       .  S
O36         Al42   1.856       .  S
O37          C44   1.259       .  A
O38         Al42   1.763       .  S
O39          C40   1.274   1_556  A
C40         C966   1.487       .  S
C41        C1197   1.468       .  S
C44         C977   1.478       .  S
C45        C1097   1.488       .  S
C45          O46   1.273       .  A
O47          C62   1.255       .  A
O47         Al55   1.869       .  S
C48        C1217   1.485       .  S
C48          O58   1.253       .  A
C48          O49   1.274       .  A
O49         Al51   1.978       .  S
O50          C52   1.255       .  A
O50         Al51   1.851       .  S
Al51         O59   1.871       .  S
Al51         O61   1.988       .  S
Al51         O60   1.768       .  S
C52        C1146   1.470       .  S
C52          O65   1.277       .  A
O53          C63   1.253       .  A
O53         Al55   1.841       .  S
O54          C67   1.255       .  A
O54         Al64   1.867       .  S
Al55         O68   1.972       .  S
Al55         O65   1.985       .  S
Al55         O60   1.764       .  S
O56          C63   1.275       .  A
O56         Al64   1.976       .  S
O57          C66   1.276       .  A
O57         Al64   1.979       .  S
O58         Al64   1.859       .  S
O59          C66   1.260       .  A
O60         Al64   1.761       .  S
O61          C62   1.275       .  A
C62         C857   1.487       .  S
C63        C1046   1.482       .  S
C66         C897   1.479       .  S
C67         C877   1.485       .  S
C67          O68   1.272       .  A
O69          C84   1.260   1_565  A
O69         Al77   1.877       .  S
C70         C797   1.469       .  S
C70          O80   1.253       .  A
C70          O71   1.272       .  A
O71         Al73   1.970       .  S
O72          C74   1.255       .  A
O72         Al73   1.857       .  S
Al73         O81   1.871       .  S
Al73         O83   1.974       .  S
Al73         O82   1.764       .  S
C74         C817   1.479       .  S
C74          O87   1.275       .  A
O75          C85   1.254       .  A
O75         Al77   1.850       .  S
O76          C89   1.255       .  A
O76         Al86   1.864       .  S
Al77         O90   1.986       .  S
Al77         O87   1.979       .  S
Al77         O82   1.768       .  S
O78          C85   1.276       .  A
O78         Al86   1.986       .  S
O79          C88   1.275       .  A
O79         Al86   1.979       .  S
O80         Al86   1.852       .  S
O81          C88   1.258       .  A
O82         Al86   1.762       .  S
O83          C84   1.274   1_565  A
C84         C837   1.481       .  S
C85        C1117   1.475       .  S
C88         C777   1.483       .  S
C89        C1026   1.495       .  S
C89          O90   1.274       .  A
C91          C92   1.413       .  A
C91          C96   1.414       .  A
C91         C906   1.487       .  S
C92          C93   1.392       .  A
C92         C946   1.477       .  S
C93          C94   1.392       .  A
C93          H98   1.087       .  S
C94          C95   1.416       .  A
C94         C766   1.478       .  S
C95          C96   1.417       .  A
C95         C846   1.490       .  S
C96          H97   1.084       .  S
O99         C114   1.260       .  A
O99        Al107   1.870       .  S
C100        C697   1.480       .  S
C100        O110   1.254       .  A
C100        O101   1.272       .  A
O101       Al103   1.966       .  S
O102        C104   1.254       .  A
O102       Al103   1.862       .  S
Al103       O111   1.862       .  S
Al103       O113   1.976       .  S
Al103       O112   1.765       .  S
C104        C757   1.478       .  S
C104        O117   1.272       .  A
O105        C115   1.256       .  A
O105       Al107   1.856       .  S
O106        C119   1.258   1_556  A
O106       Al116   1.886       .  S
Al107       O120   1.970   1_556  S
Al107       O117   1.975       .  S
Al107       O112   1.769       .  S
O108        C115   1.276       .  A
O108       Al116   1.979       .  S
O109        C118   1.274       .  A
O109       Al116   1.972   1_565  S
O110       Al116   1.853       .  S
O111        C118   1.256   1_545  A
O112       Al116   1.766       .  S
O113        C114   1.275       .  A
C114        C737   1.478       .  S
C115        C726   1.466       .  S
C118       C1086   1.486       .  S
C119        C677   1.489       .  S
C119        O120   1.271       .  A
C121        C122   1.417       .  A
C121        C126   1.389   1_556  A
C121        C926   1.475       .  S
C122        C123   1.419   1_556  A
C122        C746   1.492       .  S
C123        C124   1.415       .  A
C123        H128   1.084   1_554  S
C124        C125   1.411       .  A
C124        C637   1.489       .  S
C125        C126   1.388       .  A
C125        C666   1.472       .  S
C126        H127   1.088       .  S
C129        C130   1.411       .  A
C129        C134   1.393       .  A
C129        C826   1.476       .  S
C130        C131   1.414       .  A
C130        C626   1.494   1_545  S
C131        C132   1.420       .  A
C131        H136   1.083       .  S
C132        C133   1.420       .  A
C132        C606   1.502       .  S
C133        C134   1.397       .  A
C133        C706   1.482       .  S
C134        H135   1.087       .  S
C137        C138   1.419       .  A
C137        C142   1.393       .  A
C137        C577   1.476       .  S
C138        C139   1.420       .  A
C138        C526   1.502       .  S
C139        C140   1.416   1_455  A
C139        H144   1.083       .  S
C140        C141   1.411   1_655  A
C140        C537   1.487       .  S
C141        C142   1.390       .  A
C141        C557   1.478   1_455  S
C142        H143   1.087       .  S
C145        C146   1.415       .  A
C145        C150   1.419       .  A
C145        C866   1.495       .  S
C146        C147   1.394       .  A
C146        C806   1.476       .  S
C147        C148   1.392       .  A
C147        H152   1.087       .  S
C148        C149   1.414       .  A
C148        C497   1.481       .  S
C149        C150   1.418       .  A
C149        C486   1.488       .  S
C150        H151   1.084       .  S
C153        C154   1.411       .  A
C153        C158   1.413       .  A
C153        C957   1.493       .  S
C154        C155   1.396       .  A
C154        C457   1.477       .  S
C155        C156   1.398       .  A
C155        H160   1.086       .  S
C156        C157   1.425       .  A
C156        C437   1.491       .  S
C157        C158   1.422       .  A
C157        C886   1.503       .  S
C158        H159   1.083       .  S
O161        C176   1.257       .  A
O161       Al169   1.872   1_455  S
C162        C446   1.487       .  S
C162        O172   1.255       .  A
C162        O163   1.277       .  A
O163       Al165   1.989       .  S
O164        C166   1.254       .  A
O164       Al165   1.858       .  S
Al165       O173   1.875       .  S
Al165       O175   1.993   1_655  S
Al165       O174   1.763       .  S
C166        C566   1.470       .  S
C166        O179   1.274       .  A
O167        C177   1.256       .  A
O167       Al169   1.855       .  S
O168        C181   1.256       .  A
O168       Al178   1.878       .  S
Al169       O182   1.971       .  S
Al169       O179   1.980       .  S
Al169       O174   1.770       .  S
O170        C177   1.277       .  A
O170       Al178   1.984       .  S
O171        C180   1.274       .  A
O171       Al178   1.977       .  S
O172       Al178   1.859       .  S
O173        C180   1.257       .  A
O174       Al178   1.765       .  S
O175        C176   1.278       .  A
C176        C477   1.485       .  S
C177       C1066   1.475       .  S
C180        C417   1.481       .  S
C181       C1186   1.478       .  S
C181        O182   1.272       .  A
O183        C198   1.259   1_565  A
O183       Al191   1.873       .  S
C184        C506   1.481       .  S
C184        O194   1.254       .  A
C184        O185   1.276       .  A
O185       Al187   1.985       .  S
O186        C188   1.253       .  A
O186       Al187   1.848       .  S
Al187       O195   1.867       .  S
Al187       O197   1.989       .  S
Al187       O196   1.761       .  S
C188        C397   1.478       .  S
C188        O201   1.274       .  A
O189        C199   1.254       .  A
O189       Al191   1.849       .  S
O190        C203   1.257   1_455  A
O190       Al200   1.877       .  S
Al191       O204   1.980       .  S
Al191       O201   1.980       .  S
Al191       O196   1.766       .  S
O192        C199   1.276       .  A
O192       Al200   1.985       .  S
O193        C202   1.276       .  A
O193       Al200   1.983       .  S
O194       Al200   1.856       .  S
O195        C202   1.256       .  A
O196       Al200   1.766       .  S
O197        C198   1.277   1_565  A
C198        C377   1.497       .  S
C199        C586   1.474       .  S
C202        C617   1.482       .  S
C203       C1006   1.484       .  S
C203        O204   1.274   1_655  A
O205        C220   1.257       .  A
O205       Al213   1.874       .  S
C206        C657   1.480       .  S
C206        O216   1.252       .  A
C206        O207   1.275       .  A
O207       Al209   1.981       .  S
O208        C210   1.254       .  A
O208       Al209   1.853       .  S
Al209       O217   1.870       .  S
Al209       O219   1.973       .  S
Al209       O218   1.767       .  S
C210        C466   1.471       .  S
C210        O223   1.275       .  A
O211        C221   1.255       .  A
O211       Al213   1.859       .  S
O212        C225   1.256   1_655  A
O212       Al222   1.865       .  S
Al213       O226   1.978   1_655  S
Al213       O223   1.984       .  S
Al213       O218   1.762       .  S
O214        C221   1.275       .  A
O214       Al222   1.977       .  S
O215        C224   1.274       .  A
O215       Al222   1.977   1_556  S
O216       Al222   1.839       .  S
O217        C224   1.257   1_554  A
O218       Al222   1.762       .  S
O219        C220   1.273       .  A
C220        C546   1.478       .  S
C221        C366   1.486       .  S
C224       C1157   1.479       .  S
C225        C346   1.488       .  S
C225        O226   1.275       .  A
C227        C228   1.412       .  A
C227        C232   1.415       .  A
C227        C786   1.493   1_545  S
C228        C229   1.393       .  A
C228        C406   1.474   1_545  S
C229        C230   1.393       .  A
C229        H234   1.087       .  S
C230        C231   1.419       .  A
C230        C326   1.481       .  S
C231        C232   1.418       .  A
C231        C686   1.493       .  S
C232        H233   1.084       .  S
O235        C250   1.258   1_554  A
O235       Al243   1.876       .  S
C236        C306   1.477       .  S
C236        O246   1.253       .  A
C236        O237   1.275       .  A
O237       Al239   1.985       .  S
O238        C240   1.256       .  A
O238       Al239   1.853       .  S
Al239       O247   1.871   1_455  S
Al239       O249   1.977   1_554  S
Al239       O248   1.768       .  S
C240        C277   1.481       .  S
C240        O253   1.279       .  A
O241        C251   1.253       .  A
O241       Al243   1.846       .  S
O242        C255   1.255       .  A
O242       Al252   1.862   1_565  S
Al243       O256   1.999   1_545  S
Al243       O253   1.994       .  S
Al243       O248   1.766       .  S
O244        C251   1.274       .  A
O244       Al252   1.979       .  S
O245        C254   1.275       .  A
O245       Al252   1.978   1_655  S
O246       Al252   1.849       .  S
O247        C254   1.258       .  A
O248       Al252   1.763       .  S
O249        C250   1.274       .  A
C250        C597   1.491       .  S
C251        C317   1.477       .  S
C254        C646   1.483       .  S
C255        C517   1.499       .  S
C255        O256   1.277       .  A
C257        C258   1.414       .  A
C257        C262   1.416       .  A
C257        C426   1.492       .  S
C258        C259   1.394       .  A
C258        C357   1.481       .  S
C259        C260   1.397       .  A
C259        H264   1.087       .  S
C260        C261   1.420       .  A
C260        C297   1.482       .  S
C261        C262   1.419       .  A
C261        C386   1.502       .  S
C262        H263   1.083       .  S
C265        C266   1.413   1_554  A
C265        C270   1.394       .  A
C265        C717   1.477   1_554  S
C266        C267   1.414   1_556  A
C266        C986   1.493       .  S
C267        C268   1.419       .  A
C267        H272   1.083   1_554  S
C268        C269   1.419       .  A
C268        C337   1.495       .  S
C269        C270   1.395       .  A
C269        C286   1.485       .  S
C270        H271   1.087       .  S
C273        C274   1.401       .  A
C273        C278   1.396       .  A
C273        H283   1.083       .  S
C274        C275   1.415       .  A
C274        C279   1.494       .  S
C275        C276   1.408       .  A
C275        F280   1.357       .  S
C276        C277   1.401       .  A
C276        H281   1.083       .  S
C277        C278   1.411       .  A
C278        F282   1.358       .  S
C279        C284   1.411   1_554  A
C279        C288   1.405       .  A
C284        C285   1.404       .  A
C284        F289   1.357       .  S
C285        C286   1.403   1_556  A
C285        H290   1.083       .  S
C286        C287   1.408       .  A
C287        C288   1.400       .  A
C287        F291   1.358       .  S
C288        H292   1.083       .  S
C293        C294   1.404       .  A
C293        C298   1.399       .  A
C293        H303   1.083       .  S
C294        C295   1.409       .  A
C294        C299   1.488       .  S
C295        C296   1.402       .  A
C295        F300   1.357   1_455  S
C296        C297   1.404       .  A
C296        H301   1.083   1_455  S
C297        C298   1.408       .  A
C298        F302   1.357       .  S
C299        C304   1.414       .  A
C299        C308   1.399       .  A
C304        C305   1.407       .  A
C304        F309   1.357       .  S
C305        C306   1.401       .  A
C305        H310   1.083       .  S
C306        C307   1.410       .  A
C307        C308   1.394       .  A
C307        F311   1.358       .  S
C308        H312   1.083       .  S
C313        C314   1.399       .  A
C313        C318   1.392       .  A
C313        H323   1.084       .  S
C314        C315   1.413       .  A
C314        C319   1.486       .  S
C315        C316   1.407       .  A
C315        F320   1.357       .  S
C316        C317   1.402       .  A
C316        H321   1.083       .  S
C317        C318   1.410       .  A
C318        F322   1.359       .  S
C319        C324   1.407       .  A
C319        C328   1.405       .  A
C324        C325   1.398       .  A
C324        F329   1.358   1_545  S
C325        C326   1.404       .  A
C325        H330   1.083   1_545  S
C326        C327   1.408       .  A
C327        C328   1.402       .  A
C327        F331   1.357       .  S
C328        H332   1.083       .  S
C333        C334   1.409       .  A
C333        C338   1.401   1_554  A
C333        H343   1.083   1_554  S
C334        C335   1.411       .  A
C334        C339   1.498       .  S
C335        C336   1.402       .  A
C335        F340   1.357       .  S
C336        C337   1.406       .  A
C336        H341   1.082       .  S
C337        C338   1.409   1_554  A
C338        F342   1.358       .  S
C339        C344   1.413       .  A
C339        C348   1.404       .  A
C344        C345   1.407       .  A
C344        F349   1.357       .  S
C345        C346   1.405       .  A
C345        H350   1.083       .  S
C346        C347   1.411       .  A
C347        C348   1.395       .  A
C347        F351   1.358   1_554  S
C348        H352   1.083   1_554  S
C353        C354   1.408       .  A
C353        C358   1.402       .  A
C353        H363   1.083       .  S
C354        C355   1.407   1_655  A
C354        C359   1.490       .  S
C355        C356   1.399       .  A
C355        F360   1.357       .  S
C356        C357   1.404       .  A
C356        H361   1.083       .  S
C357        C358   1.405   1_455  A
C358        F362   1.357       .  S
C359        C364   1.413   1_655  A
C359        C368   1.399       .  A
C364        C365   1.406   1_455  A
C364        F369   1.357       .  S
C365        C366   1.403       .  A
C365        H370   1.083   1_655  S
C366        C367   1.413       .  A
C367        C368   1.395       .  A
C367        F371   1.356       .  S
C368        H372   1.084       .  S
C373        C374   1.412       .  A
C373        C378   1.411       .  A
C373        H383   1.083       .  S
C374        C375   1.408       .  A
C374        C379   1.502       .  S
C375        C376   1.397       .  A
C375        F380   1.357   1_455  S
C376        C377   1.409       .  A
C376        H381   1.083       .  S
C377        C378   1.409       .  A
C378        F382   1.357       .  S
C379        C384   1.411       .  A
C379        C388   1.408       .  A
C384        C385   1.402       .  A
C384        F389   1.357       .  S
C385        C386   1.407       .  A
C385        H390   1.083   1_455  S
C386        C387   1.411       .  A
C387        C388   1.407       .  A
C387        F391   1.356       .  S
C388        H392   1.083       .  S
C393        C394   1.411       .  A
C393        C398   1.404       .  A
C393        H403   1.083   1_565  S
C394        C395   1.402       .  A
C394        C399   1.485       .  S
C395        C396   1.392       .  A
C395        F400   1.358       .  S
C396        C397   1.408       .  A
C396        H401   1.084       .  S
C397        C398   1.404       .  A
C398        F402   1.357   1_565  S
C399        C404   1.409       .  A
C399        C408   1.405   1_565  A
C404        C405   1.398       .  A
C404        F409   1.357       .  S
C405        C406   1.402       .  A
C405        H410   1.083       .  S
C406        C407   1.405   1_565  A
C407        C408   1.398       .  A
C407        F411   1.357       .  S
C408        H412   1.083       .  S
C413        C414   1.407       .  A
C413        C418   1.406       .  A
C413        H423   1.083       .  S
C414        C415   1.406       .  A
C414        C419   1.491       .  S
C415        C416   1.401       .  A
C415        F420   1.358   1_655  S
C416        C417   1.405       .  A
C416        H421   1.084       .  S
C417        C418   1.407       .  A
C418        F422   1.357       .  S
C419        C424   1.406       .  A
C419        C428   1.407   1_655  A
C424        C425   1.404       .  A
C424        F429   1.357       .  S
C425        C426   1.408   1_655  A
C425        H430   1.083       .  S
C426        C427   1.406       .  A
C427        C428   1.402       .  A
C427        F431   1.357       .  S
C428        H432   1.083       .  S
C433        C434   1.406       .  A
C433        C438   1.401       .  A
C433        H443   1.083       .  S
C434        C435   1.414       .  A
C434        C439   1.501       .  S
C435        C436   1.406       .  A
C435        F440   1.357       .  S
C436        C437   1.403       .  A
C436        H441   1.083       .  S
C437        C438   1.409       .  A
C438        F442   1.358       .  S
C439        C444   1.417       .  A
C439        C448   1.403       .  A
C444        C445   1.410       .  A
C444        F449   1.357       .  S
C445        C446   1.402       .  A
C445        H450   1.083       .  S
C446        C447   1.411       .  A
C447        C448   1.398       .  A
C447        F451   1.358       .  S
C448        H452   1.083       .  S
C453        C454   1.406       .  A
C453        C458   1.399       .  A
C453        H463   1.083       .  S
C454        C455   1.409       .  A
C454        C459   1.490       .  S
C455        C456   1.400       .  A
C455        F460   1.357       .  S
C456        C457   1.402       .  A
C456        H461   1.083       .  S
C457        C458   1.405       .  A
C458        F462   1.357       .  S
C459        C464   1.406       .  A
C459        C468   1.411       .  A
C464        C465   1.396       .  A
C464        F469   1.358       .  S
C465        C466   1.405       .  A
C465        H470   1.084       .  S
C466        C467   1.401       .  A
C467        C468   1.403       .  A
C467        F471   1.355       .  S
C468        H472   1.083       .  S
C473        C474   1.410       .  A
C473        C478   1.407       .  A
C473        H483   1.083       .  S
C474        C475   1.408       .  A
C474        C479   1.498       .  S
C475        C476   1.400       .  A
C475        F480   1.357       .  S
C476        C477   1.406       .  A
C476        H481   1.084       .  S
C477        C478   1.407       .  A
C478        F482   1.357       .  S
C479        C484   1.410       .  A
C479        C488   1.409       .  A
C484        C485   1.405       .  A
C484        F489   1.357       .  S
C485        C486   1.405       .  A
C485        H490   1.083       .  S
C486        C487   1.404       .  A
C487        C488   1.402       .  A
C487        F491   1.356       .  S
C488        H492   1.083       .  S
C493        C494   1.406       .  A
C493        C498   1.403       .  A
C493        H503   1.083       .  S
C494        C495   1.409       .  A
C494        C499   1.492       .  S
C495        C496   1.400       .  A
C495        F500   1.357       .  S
C496        C497   1.403       .  A
C496        H501   1.082       .  S
C497        C498   1.407       .  A
C498        F502   1.358       .  S
C499        C504   1.414       .  A
C499        C508   1.401       .  A
C504        C505   1.409       .  A
C504        F509   1.357       .  S
C505        C506   1.403       .  A
C505        H510   1.083       .  S
C506        C507   1.410       .  A
C507        C508   1.395       .  A
C507        F511   1.358       .  S
C508        H512   1.083       .  S
C513        C514   1.413       .  A
C513        C518   1.413       .  A
C513        H523   1.083       .  S
C514        C515   1.405       .  A
C514        C519   1.501       .  S
C515        C516   1.396       .  A
C515        F520   1.358   1_455  S
C516        C517   1.411       .  A
C516        H521   1.083   1_455  S
C517        C518   1.409       .  A
C518        F522   1.357       .  S
C519        C524   1.410       .  A
C519        C528   1.407       .  A
C524        C525   1.402       .  A
C524        F529   1.357   1_455  S
C525        C526   1.407       .  A
C525        H530   1.083   1_455  S
C526        C527   1.412       .  A
C527        C528   1.406       .  A
C527        F531   1.355       .  S
C528        H532   1.083       .  S
C533        C534   1.407       .  A
C533        C538   1.399   1_655  A
C533        H543   1.083   1_655  S
C534        C535   1.407       .  A
C534        C539   1.490       .  S
C535        C536   1.403       .  A
C535        F540   1.357       .  S
C536        C537   1.405       .  A
C536        H541   1.083       .  S
C537        C538   1.405   1_655  A
C538        F542   1.357       .  S
C539        C544   1.407       .  A
C539        C548   1.407       .  A
C544        C545   1.398       .  A
C544        F549   1.357   1_655  S
C545        C546   1.405       .  A
C545        H550   1.084       .  S
C546        C547   1.407       .  A
C547        C548   1.404       .  A
C547        F551   1.357       .  S
C548        H552   1.083       .  S
C553        C554   1.407       .  A
C553        C558   1.402       .  A
C553        H563   1.083       .  S
C554        C555   1.407   1_655  A
C554        C559   1.487       .  S
C555        C556   1.396       .  A
C555        F560   1.357       .  S
C556        C557   1.404   1_455  A
C556        H561   1.083       .  S
C557        C558   1.405       .  A
C558        F562   1.357       .  S
C559        C564   1.413       .  A
C559        C568   1.401       .  A
C564        C565   1.406       .  A
C564        F569   1.357       .  S
C565        C566   1.401       .  A
C565        H570   1.083       .  S
C566        C567   1.407       .  A
C567        C568   1.392       .  A
C567        F571   1.358   1_655  S
C568        H572   1.083   1_655  S
C573        C574   1.404       .  A
C573        C578   1.397       .  A
C573        H583   1.083       .  S
C574        C575   1.411   1_455  A
C574        C579   1.488       .  S
C575        C576   1.400       .  A
C575        F580   1.357       .  S
C576        C577   1.401   1_655  A
C576        H581   1.083       .  S
C577        C578   1.408       .  A
C578        F582   1.358       .  S
C579        C584   1.415       .  A
C579        C588   1.400       .  A
C584        C585   1.407       .  A
C584        F589   1.357       .  S
C585        C586   1.401       .  A
C585        H590   1.083       .  S
C586        C587   1.408       .  A
C587        C588   1.391       .  A
C587        F591   1.358       .  S
C588        H592   1.083       .  S
C593        C594   1.410       .  A
C593        C598   1.407       .  A
C593        H603   1.083       .  S
C594        C595   1.408       .  A
C594        C599   1.497       .  S
C595        C596   1.397       .  A
C595        F600   1.358   1_545  S
C596        C597   1.408       .  A
C596        H601   1.083   1_545  S
C597        C598   1.409       .  A
C598        F602   1.357       .  S
C599        C604   1.408       .  A
C599        C608   1.407       .  A
C604        C605   1.400       .  A
C604        F609   1.357   1_545  S
C605        C606   1.408       .  A
C605        H610   1.083   1_545  S
C606        C607   1.412       .  A
C607        C608   1.404       .  A
C607        F611   1.356       .  S
C608        H612   1.083       .  S
C613        C614   1.405       .  A
C613        C618   1.399       .  A
C613        H623   1.083   1_565  S
C614        C615   1.411       .  A
C614        C619   1.496       .  S
C615        C616   1.407       .  A
C615        F620   1.357       .  S
C616        C617   1.405       .  A
C616        H621   1.083       .  S
C617        C618   1.408       .  A
C618        F622   1.358       .  S
C619        C624   1.411   1_565  A
C619        C628   1.406       .  A
C624        C625   1.401       .  A
C624        F629   1.358       .  S
C625        C626   1.404   1_545  A
C625        H630   1.083       .  S
C626        C627   1.409       .  A
C627        C628   1.405       .  A
C627        F631   1.357       .  S
C628        H632   1.083       .  S
C633        C634   1.406       .  A
C633        C638   1.406       .  A
C633        H643   1.083       .  S
C634        C635   1.410       .  A
C634        C639   1.491       .  S
C635        C636   1.397       .  A
C635        F640   1.358   1_554  S
C636        C637   1.402       .  A
C636        H641   1.082   1_554  S
C637        C638   1.409       .  A
C638        F642   1.357       .  S
C639        C644   1.410       .  A
C639        C648   1.403       .  A
C644        C645   1.407       .  A
C644        F649   1.357       .  S
C645        C646   1.406       .  A
C645        H650   1.083       .  S
C646        C647   1.409       .  A
C647        C648   1.396       .  A
C647        F651   1.358   1_554  S
C648        H652   1.083   1_554  S
C653        C654   1.413       .  A
C653        C658   1.405       .  A
C653        H663   1.083   1_554  S
C654        C655   1.401       .  A
C654        C659   1.485       .  S
C655        C656   1.389       .  A
C655        F660   1.357       .  S
C656        C657   1.409       .  A
C656        H661   1.084       .  S
C657        C658   1.404       .  A
C658        F662   1.357   1_554  S
C659        C664   1.411       .  A
C659        C668   1.403   1_554  A
C664        C665   1.398       .  A
C664        F669   1.357       .  S
C665        C666   1.399       .  A
C665        H670   1.083       .  S
C666        C667   1.406   1_554  A
C667        C668   1.395       .  A
C667        F671   1.358       .  S
C668        H672   1.083       .  S
C673        C674   1.406       .  A
C673        C678   1.400       .  A
C673        H683   1.083   1_545  S
C674        C675   1.410       .  A
C674        C679   1.496       .  S
C675        C676   1.406       .  A
C675        F680   1.357       .  S
C676        C677   1.407       .  A
C676        H681   1.083       .  S
C677        C678   1.409       .  A
C678        F682   1.358   1_545  S
C679        C684   1.410       .  A
C679        C688   1.407       .  A
C684        C685   1.400       .  A
C684        F689   1.357   1_545  S
C685        C686   1.403       .  A
C685        H690   1.079   1_545  S
C686        C687   1.409       .  A
C687        C688   1.406       .  A
C687        F691   1.357       .  S
C688        H692   1.083       .  S
C693        C694   1.399       .  A
C693        C698   1.394       .  A
C693        H703   1.083       .  S
C694        C695   1.411       .  A
C694        C699   1.483       .  S
C695        C696   1.404       .  A
C695        F700   1.357       .  S
C696        C697   1.402       .  A
C696        H701   1.083       .  S
C697        C698   1.412       .  A
C698        F702   1.358       .  S
C699        C704   1.408       .  A
C699        C708   1.403       .  A
C704        C705   1.402       .  A
C704        F709   1.357   1_545  S
C705        C706   1.404       .  A
C705        H710   1.083   1_545  S
C706        C707   1.408       .  A
C707        C708   1.397       .  A
C707        F711   1.358       .  S
C708        H712   1.083       .  S
C713        C714   1.405   1_554  A
C713        C718   1.396       .  A
C713        H723   1.083       .  S
C714        C715   1.410       .  A
C714        C719   1.488       .  S
C715        C716   1.401       .  A
C715        F720   1.357       .  S
C716        C717   1.401       .  A
C716        H721   1.083       .  S
C717        C718   1.405   1_556  A
C718        F722   1.358       .  S
C719        C724   1.406   1_556  A
C719        C728   1.410       .  A
C724        C725   1.395       .  A
C724        F729   1.358       .  S
C725        C726   1.403   1_554  A
C725        H730   1.084       .  S
C726        C727   1.401       .  A
C727        C728   1.403       .  A
C727        F731   1.357       .  S
C728        H732   1.083       .  S
C733        C734   1.401       .  A
C733        C738   1.395       .  A
C733        H743   1.084       .  S
C734        C735   1.408       .  A
C734        C739   1.483       .  S
C735        C736   1.406       .  A
C735        F740   1.357       .  S
C736        C737   1.406       .  A
C736        H741   1.084       .  S
C737        C738   1.407       .  A
C738        F742   1.358       .  S
C739        C744   1.407       .  A
C739        C748   1.402       .  A
C744        C745   1.398       .  A
C744        F749   1.358       .  S
C745        C746   1.404       .  A
C745        H750   1.080   1_556  S
C746        C747   1.411       .  A
C747        C748   1.404       .  A
C747        F751   1.357       .  S
C748        H752   1.083       .  S
C753        C754   1.411       .  A
C753        C758   1.404       .  A
C753        H763   1.083       .  S
C754        C755   1.406       .  A
C754        C759   1.491       .  S
C755        C756   1.395       .  A
C755        F760   1.357       .  S
C756        C757   1.406       .  A
C756        H761   1.084       .  S
C757        C758   1.404       .  A
C758        F762   1.357       .  S
C759        C764   1.410       .  A
C759        C768   1.406       .  A
C764        C765   1.399       .  A
C764        F769   1.357       .  S
C765        C766   1.404       .  A
C765        H770   1.084       .  S
C766        C767   1.406       .  A
C767        C768   1.400       .  A
C767        F771   1.357       .  S
C768        H772   1.083       .  S
C773        C774   1.405       .  A
C773        C778   1.399       .  A
C773        H783   1.083   1_565  S
C774        C775   1.411       .  A
C774        C779   1.495       .  S
C775        C776   1.407       .  A
C775        F780   1.357       .  S
C776        C777   1.405       .  A
C776        H781   1.083       .  S
C777        C778   1.408       .  A
C778        F782   1.358   1_565  S
C779        C784   1.410   1_565  A
C779        C788   1.406       .  A
C784        C785   1.400       .  A
C784        F789   1.358       .  S
C785        C786   1.404   1_545  A
C785        H790   1.082       .  S
C786        C787   1.408       .  A
C787        C788   1.405       .  A
C787        F791   1.357       .  S
C788        H792   1.083       .  S
C793        C794   1.402       .  A
C793        C798   1.394       .  A
C793        H803   1.083       .  S
C794        C795   1.413       .  A
C794        C799   1.488       .  S
C795        C796   1.404       .  A
C795        F800   1.357       .  S
C796        C797   1.400       .  A
C796        H801   1.083       .  S
C797        C798   1.406       .  A
C798        F802   1.358       .  S
C799        C804   1.408       .  A
C799        C808   1.407       .  A
C804        C805   1.396       .  A
C804        F809   1.357       .  S
C805        C806   1.403       .  A
C805        H810   1.083       .  S
C806        C807   1.404       .  A
C807        C808   1.401       .  A
C807        F811   1.357       .  S
C808        H812   1.083       .  S
C813        C814   1.410       .  A
C813        C818   1.404       .  A
C813        H823   1.083   1_565  S
C814        C815   1.404       .  A
C814        C819   1.486       .  S
C815        C816   1.394       .  A
C815        F820   1.358       .  S
C816        C817   1.408       .  A
C816        H821   1.084       .  S
C817        C818   1.404       .  A
C818        F822   1.357   1_565  S
C819        C824   1.409       .  A
C819        C828   1.406   1_565  A
C824        C825   1.398       .  A
C824        F829   1.357       .  S
C825        C826   1.402   1_565  A
C825        H830   1.084       .  S
C826        C827   1.404       .  A
C827        C828   1.399       .  A
C827        F831   1.357       .  S
C828        H832   1.083       .  S
C833        C834   1.404       .  A
C833        C838   1.398       .  A
C833        H843   1.083       .  S
C834        C835   1.409       .  A
C834        C839   1.490       .  S
C835        C836   1.406       .  A
C835        F840   1.357       .  S
C836        C837   1.406       .  A
C836        H841   1.084       .  S
C837        C838   1.407       .  A
C838        F842   1.358       .  S
C839        C844   1.409       .  A
C839        C848   1.405       .  A
C844        C845   1.400       .  A
C844        F849   1.358       .  S
C845        C846   1.403       .  A
C845        H850   1.081       .  S
C846        C847   1.409       .  A
C847        C848   1.404       .  A
C847        F851   1.357       .  S
C848        H852   1.083       .  S
C853        C854   1.404       .  A
C853        C858   1.397       .  A
C853        H863   1.083       .  S
C854        C855   1.412       .  A
C854        C859   1.498       .  S
C855        C856   1.410       .  A
C855        F860   1.357       .  S
C856        C857   1.407       .  A
C856        H861   1.083       .  S
C857        C858   1.409       .  A
C858        F862   1.358       .  S
C859        C864   1.412       .  A
C859        C868   1.406       .  A
C864        C865   1.402       .  A
C864        F869   1.358       .  S
C865        C866   1.404       .  A
C865        H870   1.082       .  S
C866        C867   1.409       .  A
C867        C868   1.406       .  A
C867        F871   1.357       .  S
C868        H872   1.083       .  S
C873        C874   1.412       .  A
C873        C878   1.406       .  A
C873        H883   1.083       .  S
C874        C875   1.410       .  A
C874        C879   1.502       .  S
C875        C876   1.397       .  A
C875        F880   1.357       .  S
C876        C877   1.406       .  A
C876        H881   1.084       .  S
C877        C878   1.405       .  A
C878        F882   1.357       .  S
C879        C884   1.410       .  A
C879        C888   1.408       .  A
C884        C885   1.402       .  A
C884        F889   1.357       .  S
C885        C886   1.409       .  A
C885        H890   1.083       .  S
C886        C887   1.410       .  A
C887        C888   1.402       .  A
C887        F891   1.355       .  S
C888        H892   1.083       .  S
C893        C894   1.409       .  A
C893        C898   1.406       .  A
C893        H903   1.083       .  S
C894        C895   1.407       .  A
C894        C899   1.492       .  S
C895        C896   1.397       .  A
C895        F900   1.358       .  S
C896        C897   1.404       .  A
C896        H901   1.084       .  S
C897        C898   1.406       .  A
C898        F902   1.357       .  S
C899        C904   1.408       .  A
C899        C908   1.407       .  A
C904        C905   1.405       .  A
C904        F909   1.357       .  S
C905        C906   1.406       .  A
C905        H910   1.083       .  S
C906        C907   1.404       .  A
C907        C908   1.398       .  A
C907        F911   1.356       .  S
C908        H912   1.083       .  S
C913        C914   1.412       .  A
C913        C918   1.407       .  A
C913        H923   1.083   1_556  S
C914        C915   1.403       .  A
C914        C919   1.487       .  S
C915        C916   1.390       .  A
C915        F920   1.358       .  S
C916        C917   1.407       .  A
C916        H921   1.084       .  S
C917        C918   1.404       .  A
C918        F922   1.357   1_556  S
C919        C924   1.409       .  A
C919        C928   1.405   1_556  A
C924        C925   1.398       .  A
C924        F929   1.358       .  S
C925        C926   1.403       .  A
C925        H930   1.084       .  S
C926        C927   1.406   1_556  A
C927        C928   1.399       .  A
C927        F931   1.357       .  S
C928        H932   1.083       .  S
C933        C934   1.412       .  A
C933        C938   1.404       .  A
C933        H943   1.083       .  S
C934        C935   1.404       .  A
C934        C939   1.491       .  S
C935        C936   1.395       .  A
C935        F940   1.357       .  S
C936        C937   1.409       .  A
C936        H941   1.083       .  S
C937        C938   1.403       .  A
C938        F942   1.357       .  S
C939        C944   1.411       .  A
C939        C948   1.405       .  A
C944        C945   1.401       .  A
C944        F949   1.357       .  S
C945        C946   1.402       .  A
C945        H950   1.083       .  S
C946        C947   1.406       .  A
C947        C948   1.396       .  A
C947        F951   1.358       .  S
C948        H952   1.083       .  S
C953        C954   1.409       .  A
C953        C958   1.407       .  A
C953        H963   1.083       .  S
C954        C955   1.414       .  A
C954        C959   1.503       .  S
C955        C956   1.402       .  A
C955        F960   1.357       .  S
C956        C957   1.401       .  A
C956        H961   1.083       .  S
C957        C958   1.408       .  A
C958        F962   1.357       .  S
C959        C964   1.414       .  A
C959        C968   1.407       .  A
C964        C965   1.408       .  A
C964        F969   1.357       .  S
C965        C966   1.405       .  A
C965        H970   1.083       .  S
C966        C967   1.408       .  A
C967        C968   1.400       .  A
C967        F971   1.358       .  S
C968        H972   1.083       .  S
C973        C974   1.405       .  A
C973        C978   1.399       .  A
C973        H983   1.084       .  S
C974        C975   1.410       .  A
C974        C979   1.491       .  S
C975        C976   1.406       .  A
C975        F980   1.357       .  S
C976        C977   1.405       .  A
C976        H981   1.084       .  S
C977        C978   1.405       .  A
C978        F982   1.357       .  S
C979        C984   1.409       .  A
C979        C988   1.405       .  A
C984        C985   1.400   1_556  A
C984        F989   1.358   1_556  S
C985        C986   1.404   1_554  A
C985        H990   1.083       .  S
C986        C987   1.410       .  A
C987        C988   1.405       .  A
C987        F991   1.357       .  S
C988        H992   1.083       .  S
C993        C994   1.410       .  A
C993        C998   1.402       .  A
C993       H1003   1.083       .  S
C994        C995   1.410       .  A
C994        C999   1.499       .  S
C995        C996   1.404       .  A
C995       F1000   1.357       .  S
C996        C997   1.405       .  A
C996       H1001   1.083       .  S
C997        C998   1.404       .  A
C998       F1002   1.357       .  S
C999       C1004   1.409       .  A
C999       C1008   1.409       .  A
C1004      C1005   1.401       .  A
C1004      F1009   1.357       .  S
C1005      C1006   1.405       .  A
C1005      H1010   1.084       .  S
C1006      C1007   1.407       .  A
C1007      C1008   1.406       .  A
C1007      F1011   1.358       .  S
C1008      H1012   1.083       .  S
C1013      C1014   1.408       .  A
C1013      C1018   1.405       .  A
C1013      H1023   1.083       .  S
C1014      C1015   1.411       .  A
C1014      C1019   1.499       .  S
C1015      C1016   1.400       .  A
C1015      F1020   1.357       .  S
C1016      C1017   1.404       .  A
C1016      H1021   1.083       .  S
C1017      C1018   1.410       .  A
C1018      F1022   1.357       .  S
C1019      C1024   1.406       .  A
C1019      C1028   1.412       .  A
C1024      C1025   1.393       .  A
C1024      F1029   1.358       .  S
C1025      C1026   1.409       .  A
C1025      H1030   1.083       .  S
C1026      C1027   1.409       .  A
C1027      C1028   1.412       .  A
C1027      F1031   1.357       .  S
C1028      H1032   1.083       .  S
C1033      C1034   1.407       .  A
C1033      C1038   1.402       .  A
C1033      H1043   1.083       .  S
C1034      C1035   1.404       .  A
C1034      C1039   1.482       .  S
C1035      C1036   1.395       .  A
C1035      F1040   1.358       .  S
C1036      C1037   1.406       .  A
C1036      H1041   1.084       .  S
C1037      C1038   1.405       .  A
C1038      F1042   1.357       .  S
C1039      C1044   1.399       .  A
C1039      C1048   1.410       .  A
C1044      C1045   1.393       .  A
C1044      F1049   1.358       .  S
C1045      C1046   1.411       .  A
C1045      H1050   1.084       .  S
C1046      C1047   1.404       .  A
C1047      C1048   1.405       .  A
C1047      F1051   1.357       .  S
C1048      H1052   1.083       .  S
C1053      C1054   1.406       .  A
C1053      C1058   1.402       .  A
C1053      H1063   1.083       .  S
C1054      C1055   1.408       .  A
C1054      C1059   1.489       .  S
C1055      C1056   1.399       .  A
C1055      F1060   1.357       .  S
C1056      C1057   1.403       .  A
C1056      H1061   1.083       .  S
C1057      C1058   1.407       .  A
C1058      F1062   1.357       .  S
C1059      C1064   1.413       .  A
C1059      C1068   1.401       .  A
C1064      C1065   1.407       .  A
C1064      F1069   1.357       .  S
C1065      C1066   1.401       .  A
C1065      H1070   1.083       .  S
C1066      C1067   1.408       .  A
C1067      C1068   1.394       .  A
C1067      F1071   1.358       .  S
C1068      H1072   1.083       .  S
C1073      C1074   1.408       .  A
C1073      C1078   1.401       .  A
C1073      H1083   1.083       .  S
C1074      C1075   1.410       .  A
C1074      C1079   1.495       .  S
C1075      C1076   1.399       .  A
C1075      F1080   1.357       .  S
C1076      C1077   1.406       .  A
C1076      H1081   1.083       .  S
C1077      C1078   1.407       .  A
C1078      F1082   1.356       .  S
C1079      C1084   1.408       .  A
C1079      C1088   1.411       .  A
C1084      C1085   1.395       .  A
C1084      F1089   1.357       .  S
C1085      C1086   1.407       .  A
C1085      H1090   1.083       .  S
C1086      C1087   1.406       .  A
C1087      C1088   1.405       .  A
C1087      F1091   1.357       .  S
C1088      H1092   1.083       .  S
C1093      C1094   1.408       .  A
C1093      C1098   1.408       .  A
C1093      H1103   1.083       .  S
C1094      C1095   1.406       .  A
C1094      C1099   1.491       .  S
C1095      C1096   1.393       .  A
C1095      F1100   1.358       .  S
C1096      C1097   1.407       .  A
C1096      H1101   1.083       .  S
C1097      C1098   1.410       .  A
C1098      F1102   1.357       .  S
C1099      C1104   1.406       .  A
C1099      C1108   1.407       .  A
C1104      C1105   1.397       .  A
C1104      F1109   1.358       .  S
C1105      C1106   1.407       .  A
C1105      H1110   1.083       .  S
C1106      C1107   1.410       .  A
C1107      C1108   1.406       .  A
C1107      F1111   1.356       .  S
C1108      H1112   1.083       .  S
C1113      C1114   1.405       .  A
C1113      C1118   1.394       .  A
C1113      H1123   1.083       .  S
C1114      C1115   1.415       .  A
C1114      C1119   1.496       .  S
C1115      C1116   1.407       .  A
C1115      F1120   1.357       .  S
C1116      C1117   1.402       .  A
C1116      H1121   1.083       .  S
C1117      C1118   1.406       .  A
C1118      F1122   1.358       .  S
C1119      C1124   1.413       .  A
C1119      C1128   1.406       .  A
C1124      C1125   1.405       .  A
C1124      F1129   1.357       .  S
C1125      C1126   1.403       .  A
C1125      H1130   1.083       .  S
C1126      C1127   1.406       .  A
C1127      C1128   1.395       .  A
C1127      F1131   1.358       .  S
C1128      H1132   1.083       .  S
C1133      C1134   1.404       .  A
C1133      C1138   1.392       .  A
C1133      H1143   1.083       .  S
C1134      C1135   1.413       .  A
C1134      C1139   1.493       .  S
C1135      C1136   1.406       .  A
C1135      F1140   1.357       .  S
C1136      C1137   1.403       .  A
C1136      H1141   1.083       .  S
C1137      C1138   1.406       .  A
C1138      F1142   1.358       .  S
C1139      C1144   1.414       .  A
C1139      C1148   1.405       .  A
C1144      C1145   1.405       .  A
C1144      F1149   1.357       .  S
C1145      C1146   1.401       .  A
C1145      H1150   1.084       .  S
C1146      C1147   1.405       .  A
C1147      C1148   1.394       .  A
C1147      F1151   1.358       .  S
C1148      H1152   1.083       .  S
C1153      C1154   1.404       .  A
C1153      C1158   1.397       .  A
C1153      H1163   1.083       .  S
C1154      C1155   1.411       .  A
C1154      C1159   1.492       .  S
C1155      C1156   1.406       .  A
C1155      F1160   1.357       .  S
C1156      C1157   1.405       .  A
C1156      H1161   1.084       .  S
C1157      C1158   1.407       .  A
C1158      F1162   1.358       .  S
C1159      C1164   1.411       .  A
C1159      C1168   1.406       .  A
C1164      C1165   1.399       .  A
C1164      F1169   1.357       .  S
C1165      C1166   1.402       .  A
C1165      H1170   1.082       .  S
C1166      C1167   1.408       .  A
C1167      C1168   1.403       .  A
C1167      F1171   1.357       .  S
C1168      H1172   1.083       .  S
C1173      C1174   1.405       .  A
C1173      C1178   1.401       .  A
C1173      H1183   1.083       .  S
C1174      C1175   1.411       .  A
C1174      C1179   1.489       .  S
C1175      C1176   1.401       .  A
C1175      F1180   1.357       .  S
C1176      C1177   1.402       .  A
C1176      H1181   1.083       .  S
C1177      C1178   1.406       .  A
C1178      F1182   1.357       .  S
C1179      C1184   1.409       .  A
C1179      C1188   1.404       .  A
C1184      C1185   1.403       .  A
C1184      F1189   1.357       .  S
C1185      C1186   1.404       .  A
C1185      H1190   1.084       .  S
C1186      C1187   1.408       .  A
C1187      C1188   1.400       .  A
C1187      F1191   1.358       .  S
C1188      H1192   1.083       .  S
C1193      C1194   1.409       .  A
C1193      C1198   1.400       .  A
C1193      H1203   1.083       .  S
C1194      C1195   1.405       .  A
C1194      C1199   1.484       .  S
C1195      C1196   1.396       .  A
C1195      F1200   1.358       .  S
C1196      C1197   1.405       .  A
C1196      H1201   1.084       .  S
C1197      C1198   1.400       .  A
C1198      F1202   1.357       .  S
C1199      C1204   1.408       .  A
C1199      C1208   1.404       .  A
C1204      C1205   1.399       .  A
C1204      F1209   1.357       .  S
C1205      C1206   1.401       .  A
C1205      H1210   1.083       .  S
C1206      C1207   1.406       .  A
C1207      C1208   1.398       .  A
C1207      F1211   1.358       .  S
C1208      H1212   1.083       .  S
C1213      C1214   1.400       .  A
C1213      C1218   1.396       .  A
C1213      H1223   1.084       .  S
C1214      C1215   1.411       .  A
C1214      C1219   1.486       .  S
C1215      C1216   1.403       .  A
C1215      F1220   1.357       .  S
C1216      C1217   1.403       .  A
C1216      H1221   1.083       .  S
C1217      C1218   1.415       .  A
C1218      F1222   1.358       .  S
C1219      C1224   1.407       .  A
C1219      C1228   1.406       .  A
C1224      C1225   1.399       .  A
C1224      F1229   1.357       .  S
C1225      C1226   1.403       .  A
C1225      H1230   1.083       .  S
C1226      C1227   1.404       .  A
C1227      C1228   1.400       .  A
C1227      F1231   1.357       .  S
C1228      H1232   1.083       .  S
