geometry optimzed in LAMMPS
_audit_creation_date              2020-11-30 
_audit_creation_method            'lammps2cif' 
_symmetry_space_group_name_H-M    'P1' 
_symmetry_Int_Tables_number       1 
_symmetry_cell_setting            triclinic 
loop_ 
_symmetry_equiv_pos_as_xyz 
  x,y,z 
_cell_length_a                    39.86787679 
_cell_length_b                    39.991650596450334 
_cell_length_c                    39.92223668802854 
_cell_angle_alpha                 89.85473310015796 
_cell_angle_beta                  89.91116077435774 
_cell_angle_gamma                 89.97971464932208 
loop_ 
_atom_site_label 
_atom_site_type_symbol 
_atom_site_fract_x 
_atom_site_fract_y 
_atom_site_fract_z 
_atom_site_charge 
N1          N  0.22857061  0.14455403  0.03004319    -0.02700
C2          C  0.26284482  0.14307072  0.02940974    -0.00100
C3          C  0.27243493  0.11781340  0.00772237    -0.23000
C4          C  0.24329226  0.10296159  0.99586673    -0.23200
C5          C  0.21658705  0.11952524  0.01052634    -0.00200
H6          H  0.29783280  0.11032748  0.00177778     0.13500
H7          H  0.24180851  0.08171815  0.47928608     0.13600
N8          N  0.01423298  0.03064022  0.35935511    -0.02700
C9          C  0.01314364  0.02800935  0.39339101    -0.00100
C10         C  0.98898192  0.00469167  0.40204508    -0.23000
C11         C  0.47448644  0.99371787  0.37240559    -0.23200
C12         C  0.49004543  0.01068112  0.34638799    -0.00200
H13         H  0.98222724  0.49671993  0.42707737     0.13500
H14         H  0.45419414  0.47584834  0.37018571     0.13600
N15         N  0.40230893  0.35972134  0.14293250    -0.02700
C16         C  0.39900967  0.39361758  0.14200145    -0.00100
C17         C  0.37489281  0.40182578  0.11847709    -0.23000
C18         C  0.36397985  0.37197474  0.10436586    -0.23200
C19         C  0.38170446  0.34629811  0.11960150    -0.00200
H20         H  0.36626725  0.42667602  0.11204845     0.13500
H21         H  0.34545986  0.36941531  0.08475138     0.13600
C22         C  0.11027804  0.28555047  0.25443755     0.81000
N23         N  0.13687087  0.28117572  0.23382702    -0.77300
C24         C  0.15680811  0.25402392  0.23697835     0.83400
N25         N  0.15319511  0.23418561  0.26420446    -0.77300
C26         C  0.12638699  0.23775212  0.28464067     0.83500
N27         N  0.10666402  0.26504404  0.28117268    -0.79000
O28         O  0.16837685  0.36229061  0.40611452    -0.77800
C29         C  0.17266510  0.25205003  0.36176780     0.83300
O30         O  0.27452764  0.29737594  0.36492065    -0.78900
O31         O  0.19890174  0.30937186  0.26167898    -0.80400
O32         O  0.14414556  0.38306655  0.30475924    -0.80200
O33         O  0.18102891  0.40515674  0.37219534    -0.78800
Zn34       Zn  0.19464149  0.32170754  0.38365515     1.55700
O35         O  0.12877943  0.32992935  0.31136149    -0.80200
Cd36       Cd  0.19248680  0.38148403  0.32724493     1.59700
Cd37       Cd  0.25176454  0.32411429  0.32420056     1.59600
O38         O  0.23329964  0.40390632  0.30014167    -0.80200
O39         O  0.20503864  0.33468956  0.33808326    -1.90700
Cd40       Cd  0.17662702  0.30764780  0.30953694     1.59900
O41         O  0.27579624  0.36899904  0.31127725    -0.80100
O42         O  0.17778784  0.25984337  0.33112009    -0.78800
C43         C  0.26633477  0.29596072  0.39614846     0.83800
C44         C  0.16721953  0.39376206  0.39882215     0.83400
O45         O  0.17113277  0.27476855  0.38439172    -0.77700
C46         C  0.12119326  0.36065312  0.30656288     0.84200
O47         O  0.23898005  0.30907735  0.40673266    -0.77800
C48         C  0.26462060  0.39607029  0.29819863     0.84300
C49         C  0.22942917  0.30334985  0.25378638     0.84700
O50         O  0.25201809  0.30058076  0.27646942    -0.80300
N51         N  0.03769928  0.03088246  0.10959507    -0.02700
C52         C  0.03883748  0.03304842  0.14367339    -0.00100
C53         C  0.06330309  0.05595038  0.15239705    -0.23000
C54         C  0.07822361  0.06682701  0.12281394    -0.23200
C55         C  0.06237258  0.05042700  0.09674959    -0.00200
H56         H  0.06989042  0.06370671  0.17747419     0.13500
H57         H  0.09880486  0.08434431  0.12069505     0.13600
N58         N  0.14956899  0.20247497  0.39477195    -0.02700
C59         C  0.15221940  0.16849242  0.39338494    -0.00100
C60         C  0.17602034  0.16019200  0.36955107    -0.23000
C61         C  0.18722445  0.19000068  0.35547697    -0.23200
C62         C  0.16995701  0.21572968  0.37102822    -0.00200
H63         H  0.18410108  0.13528284  0.36275597     0.13500
H64         H  0.20542717  0.19249353  0.33548955     0.13600
N65         N  0.32282914  0.41616455  0.27931833    -0.02700
C66         C  0.28863437  0.41811518  0.27890190    -0.00100
C67         C  0.27924334  0.44412763  0.25797027    -0.23000
C68         C  0.30852646  0.45905200  0.24642963    -0.23200
C69         C  0.33506370  0.44168172  0.26047151    -0.00200
H70         H  0.25391132  0.45205406  0.25237788     0.13500
H71         H  0.31016445  0.48086396  0.23041861     0.13600
C72         C  0.42372363  0.32549708  0.03395874     0.81000
N73         N  0.44369175  0.29829204  0.03138922    -0.77300
C74         C  0.44069191  0.27748001  0.50497016     0.83400
N75         N  0.41377496  0.28062014  0.48462215    -0.77300
C76         C  0.39317172  0.30733364  0.48729459     0.83500
N77         N  0.39661565  0.32798164  0.51386514    -0.79000
O78         O  0.13276396  0.11255149  0.40818222    -0.77800
C79         C  0.12843042  0.50172080  0.45239295     0.83300
O80         O  0.02673177  0.04849713  0.44896999    -0.78900
O81         O  0.10239754  0.05847353  0.05242891    -0.80400
O82         O  0.15754974  0.13260566  0.00832763    -0.80200
O83         O  0.11931738  0.15536784  0.44168001    -0.78800
Zn84       Zn  0.10671450  0.07176221  0.43045443     1.55700
O85         O  0.17254223  0.07926252  0.00267015    -0.80200
Cd86       Cd  0.10892144  0.13140716  0.48677263     1.59700
Cd87       Cd  0.04947664  0.07510188  0.98981444     1.59600
O88         O  0.06912397  0.15409230  0.01493337    -0.80200
O89         O  0.09626675  0.08467831  0.47601848    -1.90700
Cd90       Cd  0.12459499  0.05714929  0.00450837     1.59900
O91         O  0.02613309  0.12046701  0.00240612    -0.80100
O92         O  0.12329718  0.50941511  0.48303017    -0.78800
C93         C  0.03501666  0.04677673  0.41777373     0.83800
C94         C  0.13340508  0.14405473  0.41522450     0.83400
O95         O  0.13007078  0.02458436  0.42972739    -0.77700
C96         C  0.18030639  0.10997156  0.00707803     0.84200
O97         O  0.06251558  0.05953500  0.40702703    -0.77800
C98         C  0.03765364  0.14691636  0.01632020     0.84300
C99         C  0.07169905  0.05337893  0.06037820     0.84700
O100        O  0.04890119  0.05173812  0.03778204    -0.80300
N101        N  0.97956602  0.16737564  0.03456851    -0.02700
C102        C  0.01371276  0.16897051  0.03566744    -0.00100
C103        C  0.02284414  0.19435368  0.05735204    -0.23000
C104        C  0.99333962  0.20906373  0.06875237    -0.23200
C105        C  0.46694912  0.19236371  0.05368511    -0.00200
H106        H  0.04810165  0.20197956  0.06360621     0.13500
H107        H  0.99148584  0.23029103  0.08540822     0.13600
N108        N  0.26325358  0.28101763  0.20446590    -0.02700
C109        C  0.26265973  0.28410173  0.17045974    -0.00100
C110        C  0.23871965  0.30769378  0.16192964    -0.23000
C111        C  0.22366359  0.31815314  0.19154026    -0.23200
C112        C  0.23884175  0.30075482  0.21743773    -0.00200
H113        H  0.23262792  0.31625372  0.13694691     0.13500
H114        H  0.20347061  0.33610426  0.19377495     0.13600
N115        N  0.15097322  0.45212011  0.41915497    -0.02700
C116        C  0.14821124  0.41813943  0.42055801    -0.00100
C117        C  0.12447216  0.40985108  0.44448873    -0.23000
C118        C  0.11363938  0.43962920  0.45880824    -0.23200
C119        C  0.13085642  0.46536913  0.44309678    -0.00200
H120        H  0.11619884  0.38495735  0.45118402     0.13500
H121        H  0.09567665  0.44208762  0.47900413     0.13600
C122        C  0.37558771  0.07420969  0.27976848     0.81000
N123        N  0.40256891  0.07733008  0.29997415    -0.77300
C124        C  0.40650595  0.05681103  0.32664821     0.83400
N125        N  0.38678542  0.02947793  0.32926371    -0.77300
C126        C  0.35962835  0.02595208  0.30934766     0.83500
N127        N  0.35572127  0.04700408  0.28309285    -0.79000
O128        O  0.38263759  0.19990424  0.15671379    -0.77800
C129        C  0.37874848  0.30989044  0.11078307     0.83300
O130        O  0.27629881  0.26361750  0.11486092    -0.78900
O131        O  0.35190944  0.25157806  0.01158067    -0.80400
O132        O  0.40780628  0.17889223  0.05535224    -0.80200
O133        O  0.37058099  0.15672752  0.12314598    -0.78800
Zn134      Zn  0.35667964  0.24028612  0.13357827     1.55700
O135        O  0.42248541  0.23229851  0.06094043    -0.80200
Cd136      Cd  0.35915379  0.17997306  0.07771071     1.59700
Cd137      Cd  0.29936755  0.23671240  0.07457120     1.59600
O138        O  0.31832377  0.15742163  0.05042988    -0.80200
O139        O  0.34628075  0.22673880  0.08826222    -1.90700
Cd140      Cd  0.37434538  0.25392681  0.05926709     1.59900
O141        O  0.27559158  0.19164068  0.06242775    -0.80100
O142        O  0.37313504  0.30191535  0.08031997    -0.78800
C143        C  0.28464710  0.26549253  0.14596940     0.83800
C144        C  0.38395689  0.16839285  0.14983295     0.83400
O145        O  0.38039155  0.28727586  0.13362707    -0.77700
C146        C  0.43048205  0.20164524  0.05657431     0.84200
O147        O  0.31227526  0.25295083  0.15651829    -0.77800
C148        C  0.28687181  0.16494185  0.04886194     0.84300
C149        C  0.32127108  0.25716144  0.50380778     0.84700
O150        O  0.29871686  0.25974396  0.02657462    -0.80300
N151        N  0.40016677  0.11028125  0.17074720    -0.02700
C152        C  0.40265146  0.14423512  0.17217339    -0.00100
C153        C  0.42606500  0.15253686  0.19631625    -0.23000
C154        C  0.43728814  0.12265246  0.21034865    -0.23200
C155        C  0.42033749  0.09690430  0.19452731    -0.00200
H156        H  0.43390455  0.17745283  0.20331052     0.13500
H157        H  0.45526954  0.12013351  0.23047682     0.13600
N158        N  0.07241040  0.39517573  0.28413665    -0.02700
C159        C  0.03822524  0.39377123  0.28568686    -0.00100
C160        C  0.02910226  0.36896098  0.30819118    -0.23000
C161        C  0.05852536  0.35426539  0.31964018    -0.23200
C162        C  0.08488851  0.37042858  0.30383397    -0.00200
H163        H  0.50384434  0.36166982  0.31494703     0.13500
H164        H  0.06034104  0.33333843  0.33678159     0.13600
N165        N  0.28711342  0.27950063  0.45477404    -0.02700
C166        C  0.28815220  0.27712401  0.42068315    -0.00100
C167        C  0.31270625  0.25423062  0.41193413    -0.23000
C168        C  0.32761899  0.24336832  0.44144761    -0.23200
C169        C  0.31176017  0.25982386  0.46750118    -0.00200
H170        H  0.31953390  0.24664905  0.38683801     0.13500
H171        H  0.34832208  0.22597873  0.44351557     0.13600
C172        C  0.17750893  0.48740823  0.02819287     0.81000
N173        N  0.15082397  0.48365926  0.04873207    -0.77300
C174        C  0.14707598  0.50353967  0.07581985     0.83400
N175        N  0.16741054  0.03043539  0.07919004    -0.77300
C176        C  0.19352321  0.03532390  0.05800370     0.83500
N177        N  0.19675984  0.51504711  0.03116911    -0.79000
O178        O  0.02408431  0.01246197  0.19930636    -0.77800
C179        C  0.48030352  0.00807885  0.31011111     0.83300
O180        O  0.48281171  0.40693698  0.26399938    -0.78900
O181        O  0.37937981  0.48183827  0.25361041    -0.80400
O182        O  0.42146645  0.03816960  0.18024076    -0.80200
O183        O  0.48943367  0.00162252  0.15658326    -0.78800
Zn184      Zn  0.50152309  0.48668368  0.24004714     1.55700
O185        O  0.42834207  0.05205559  0.23377468    -0.80200
Cd186      Cd  0.44440469  0.98994964  0.18050212     1.59700
Cd187      Cd  0.44267356  0.42954176  0.23619249     1.59600
O188        O  0.41749545  0.44947774  0.15749328    -0.80200
O189        O  0.45587497  0.47652391  0.22703348    -1.90700
Cd190      Cd  0.42729646  0.00395630  0.25520942     1.59900
O191        O  0.43199415  0.40642524  0.19043285    -0.80100
O192        O  0.44962782  0.00235111  0.30279208    -0.78800
C193        C  0.51396465  0.41529199  0.26612039     0.83800
C194        C  0.01657185  0.01435851  0.16790131     0.83400
O195        O  0.50256417  0.01025509  0.28693389    -0.77700
C196        C  0.42315559  0.06043271  0.20327916     0.84200
O197        O  0.52467756  0.44258008  0.25306763    -0.77800
C198        C  0.41749885  0.41791738  0.16418347     0.84300
C199        C  0.37142970  0.45106225  0.25734667     0.84700
O200        O  0.39402712  0.42822092  0.25796553    -0.80300
C201        C  0.27153475  0.30596422  0.47274479    -0.00600
C202        C  0.29137073  0.33227891  0.48370440    -0.08600
C203        C  0.27689103  0.36176841  0.49429471    -0.17400
C204        C  0.24172969  0.36520790  0.49456738     0.05000
C205        C  0.22168479  0.33652325  0.48827011     0.19200
C206        C  0.23682411  0.30699083  0.47712223    -0.18800
C207        C  0.18687039  0.33800085  0.49226976    -0.20100
C208        C  0.17158922  0.36777292  0.50175089    -0.18600
C209        C  0.19063906  0.39696897  0.50528909     0.20600
C210        C  0.22592913  0.39611536  0.50099955     0.02700
C211        C  0.24407062  0.42649934  0.00241428    -0.13400
C212        C  0.22794583  0.45623461  0.00971747    -0.11100
C213        C  0.19325708  0.45688856  0.01535290     0.02200
C214        C  0.17478574  0.42718759  0.01308746    -0.23300
H215        H  0.31819992  0.33013282  0.48295916     0.10200
H216        H  0.29377346  0.38131098  0.50208706     0.13800
H217        H  0.22175241  0.28557234  0.47008891     0.12500
H218        H  0.17146901  0.31606593  0.48816529     0.13700
H219        H  0.14464406  0.36821918  0.50530480     0.12700
H220        H  0.27059737  0.42812872  0.99739803     0.09800
H221        H  0.24296979  0.47871726  0.01123669     0.13100
H222        H  0.14804158  0.42738436  0.01796189     0.15000
C223        C  0.13280699  0.48867529  0.10630849    -0.00600
C224        C  0.12491731  0.45453950  0.10681715    -0.08600
C225        C  0.11713245  0.43863423  0.13662599    -0.17400
C226        C  0.11739366  0.45640580  0.16704893     0.05000
C227        C  0.12295363  0.49138093  0.16630598     0.19200
C228        C  0.13146835  0.50703212  0.13614381    -0.18800
C229        C  0.12015643  0.51028173  0.19568294    -0.20100
C230        C  0.11050951  0.49511139  0.22557916    -0.18600
C231        C  0.10598687  0.46046468  0.22703529     0.20600
C232        C  0.11144839  0.44058184  0.19808151     0.02700
C233        C  0.11115094  0.40552996  0.20139730    -0.13400
C234        C  0.10118807  0.39102783  0.23117182    -0.11100
C235        C  0.09073153  0.41071174  0.25779357     0.02200
C236        C  0.09520410  0.44530815  0.25680218    -0.23300
H237        H  0.12551748  0.43965524  0.08420333     0.10200
H238        H  0.11059937  0.41250975  0.13504535     0.13800
H239        H  0.13783774  0.03336512  0.13606866     0.12500
H240        H  0.12448210  0.03700251  0.19529967     0.13700
H241        H  0.10697812  0.51041312  0.24767629     0.12700
H242        H  0.11847156  0.38881555  0.18151003     0.09800
H243        H  0.10020567  0.36431675  0.23328372     0.13100
H244        H  0.08846426  0.46027377  0.27839862     0.15000
C245        C  0.37311293  0.09330290  0.15529329    -0.00600
C246        C  0.37605552  0.08160361  0.12259972    -0.08600
C247        C  0.34742111  0.07234834  0.10495922    -0.17400
C248        C  0.31525181  0.07517239  0.11987750     0.05000
C249        C  0.31320577  0.08588490  0.15372961     0.19200
C250        C  0.34211564  0.09433551  0.17104785    -0.18800
C251        C  0.28229628  0.08956143  0.16974973    -0.20100
C252        C  0.25290215  0.08295827  0.15275350    -0.18600
C253        C  0.25397180  0.07204626  0.11958436     0.20600
C254        C  0.28505138  0.06816634  0.10251494     0.02700
C255        C  0.28447626  0.05710697  0.06899775    -0.13400
C256        C  0.25439127  0.04855052  0.05377056    -0.11100
C257        C  0.22399229  0.05114716  0.07122849     0.02200
C258        C  0.22401816  0.06372179  0.10386101    -0.23300
H259        H  0.40028230  0.08136825  0.11028373     0.10200
H260        H  0.35123488  0.06423020  0.07953965     0.13800
H261        H  0.34055669  0.10429749  0.19611607     0.12500
H262        H  0.28085147  0.09776176  0.19551052     0.13700
H263        H  0.22920605  0.08599388  0.16576820     0.12700
H264        H  0.30679817  0.05393951  0.05411640     0.09800
H265        H  0.25521042  0.03872206  0.02854248     0.13100
H266        H  0.20069309  0.06585177  0.11772370     0.15000
C267        C  0.17855989  0.46913631  0.40446883    -0.00600
C268        C  0.20728029  0.47304721  0.42355948    -0.08600
C269        C  0.23703420  0.48281493  0.40887875    -0.17400
C270        C  0.23867661  0.48850334  0.37406244     0.05000
C271        C  0.20845529  0.48768153  0.35518563     0.19200
C272        C  0.17848051  0.47778086  0.37060053    -0.18800
C273        C  0.20875713  0.99565041  0.32098991    -0.20100
C274        C  0.23862009  0.00458986  0.30534293    -0.18600
C275        C  0.26884788  0.00397849  0.32315447     0.18600
C276        C  0.26931209  0.49499247  0.35750761     0.02700
C277        C  0.30049869  0.49219515  0.37387642    -0.13400
C278        C  0.32980859  0.00084069  0.35768676    -0.11100
C279        C  0.32930130  0.01137712  0.32421822     0.02200
C280        C  0.29873861  0.01242478  0.30693924    -0.23300
H281        H  0.20672046  0.46687171  0.44971471     0.10200
H282        H  0.25820982  0.48535964  0.42540671     0.13800
H283        H  0.15564402  0.47503367  0.35615798     0.12500
H284        H  0.18582184  0.99524972  0.30645129     0.13700
H285        H  0.23820289  0.01129833  0.27902775     0.12700
H286        H  0.30317121  0.48339167  0.39925396     0.09800
H287        H  0.35311517  0.49911323  0.37146045     0.13100
H288        H  0.29801802  0.02067014  0.28107103     0.15000
C289        C  0.36066279  0.10503348  0.26652099    -0.00600
C290        C  0.37984084  0.13422870  0.26445058    -0.08600
C291        C  0.36505261  0.16457375  0.25623171    -0.17400
C292        C  0.33009521  0.16687218  0.25131549     0.05000
C293        C  0.31053319  0.13737077  0.25482994     0.19200
C294        C  0.32595881  0.10682477  0.26154015    -0.18800
C295        C  0.27559790  0.13853933  0.25233430    -0.20100
C296        C  0.25957276  0.16842034  0.24537961    -0.18600
C297        C  0.27826269  0.19751145  0.24024741     0.20600
C298        C  0.31377988  0.19737157  0.24337146     0.02700
C299        C  0.33136402  0.22760728  0.23753791    -0.13400
C300        C  0.31435161  0.25615184  0.22712038    -0.11100
C301        C  0.27980497  0.25500013  0.22217633     0.02200
C302        C  0.26172404  0.22647787  0.23036241    -0.23300
H303        H  0.40638885  0.13382458  0.27004452     0.10200
H304        H  0.38156069  0.18585361  0.25504462     0.13800
H305        H  0.31052368  0.08465651  0.26418181     0.12500
H306        H  0.26059047  0.11616247  0.25562197     0.13700
H307        H  0.23248827  0.16860117  0.24317429     0.12700
H308        H  0.35822886  0.22970911  0.23934503     0.09800
H309        H  0.32828210  0.27857092  0.22085887     0.13100
H310        H  0.23489958  0.22644014  0.22678438     0.15000
C311        C  0.46128091  0.15124580  0.50855652    -0.00600
C312        C  0.45482429  0.11706317  0.51012648    -0.08600
C313        C  0.44430664  0.10026200  0.48151378    -0.17400
C314        C  0.44033528  0.11768720  0.45081207     0.05000
C315        C  0.44480009  0.15294839  0.45065508     0.19200
C316        C  0.45463293  0.16926166  0.47961944    -0.18800
C317        C  0.44123319  0.17157610  0.42127576    -0.20100
C318        C  0.43458038  0.15571678  0.39134325    -0.18600
C319        C  0.43090392  0.12100919  0.39041318     0.20600
C320        C  0.43311267  0.10147677  0.42012339     0.02700
C321        C  0.42810126  0.06663879  0.41771535    -0.13400
C322        C  0.42070056  0.05200144  0.38709485    -0.11100
C323        C  0.41921025  0.07131258  0.35786080     0.02200
C324        C  0.42443633  0.10583631  0.35980448    -0.23300
H325        H  0.96023319  0.10313056  0.03311685     0.10200
H326        H  0.44093749  0.07364863  0.48394370     0.13800
H327        H  0.45968957  0.19576200  0.47928142     0.12500
H328        H  0.44434975  0.19846763  0.42129694     0.13700
H329        H  0.43246931  0.17067088  0.36875481     0.12700
H330        H  0.42891552  0.05009552  0.43902725     0.09800
H331        H  0.41523717  0.02550634  0.38650892     0.13100
H332        H  0.42249981  0.12133492  0.33756869     0.15000
C333        C  0.34158942  0.40028838  0.30506509    -0.00600
C334        C  0.35209047  0.41973496  0.33181768    -0.08600
C335        C  0.36234016  0.40490200  0.36120989    -0.17400
C336        C  0.36249369  0.36985102  0.36406271     0.05000
C337        C  0.35775359  0.35025654  0.33486367     0.19200
C338        C  0.34671948  0.36571326  0.30534547    -0.18800
C339        C  0.36283640  0.31563461  0.33607851    -0.20100
C340        C  0.37178711  0.30027696  0.36615278    -0.18600
C341        C  0.37314047  0.31896080  0.39579923     0.20600
C342        C  0.36712242  0.35383173  0.39506303     0.02700
C343        C  0.36449193  0.37136853  0.42545501    -0.13400
C344        C  0.37090335  0.35552699  0.45547199    -0.11100
C345        C  0.37979804  0.32164777  0.45621853     0.02200
C346        C  0.38041663  0.30331728  0.42627215    -0.23300
H347        H  0.35065518  0.44649976  0.33021617     0.10200
H348        H  0.36969233  0.42130299  0.38134408     0.13800
H349        H  0.34013772  0.35099207  0.28356346     0.12500
H350        H  0.36005299  0.30051299  0.31376691     0.13700
H351        H  0.37631468  0.27356004  0.36650059     0.12700
H352        H  0.35698470  0.39726453  0.42678662     0.09800
H353        H  0.36954025  0.37028454  0.47814642     0.13100
H354        H  0.38722754  0.27708787  0.42653358     0.15000
C355        C  0.47178196  0.26396481  0.49063881    -0.00600
C356        C  0.00124543  0.26345605  0.50962000    -0.08600
C357        C  0.03184005  0.25564140  0.49488676    -0.17400
C358        C  0.03397103  0.24885524  0.46027235     0.05000
C359        C  0.00398677  0.24976164  0.44106991     0.19200
C360        C  0.47341393  0.25693020  0.45635255    -0.18800
C361        C  0.50464568  0.24414698  0.40655015    -0.20100
C362        C  0.03457301  0.23689366  0.39063023    -0.18600
C363        C  0.06426170  0.23470576  0.40899379     0.20600
C364        C  0.06467016  0.24110896  0.44399584     0.02700
C365        C  0.09567323  0.23859962  0.46115288    -0.13400
C366        C  0.12444820  0.22794301  0.44445447    -0.11100
C367        C  0.12284676  0.21990863  0.41056287     0.02200
C368        C  0.09338280  0.22461521  0.39275444    -0.23300
H369        H  0.00086059  0.27004998  0.53589815     0.10200
H370        H  0.05334325  0.25581772  0.51116833     0.13800
H371        H  0.45098842  0.25808711  0.44107275     0.12500
H372        H  0.48186293  0.24525579  0.39179551     0.13700
H373        H  0.03442114  0.23241707  0.36389428     0.12700
H374        H  0.09830496  0.24344637  0.48753915     0.09800
H375        H  0.14753747  0.22423645  0.45823609     0.13100
H376        H  0.09292004  0.21820997  0.36654951     0.15000
C377        C  0.43882509  0.35678150  0.04580601    -0.00600
C378        C  0.41991511  0.38624657  0.04704661    -0.08600
C379        C  0.43510838  0.41667587  0.05433695    -0.17400
C380        C  0.47005488  0.41857945  0.05974681     0.05000
C381        C  0.98923334  0.38875089  0.05705601     0.19200
C382        C  0.47353962  0.35837339  0.05064055    -0.18800
C383        C  0.02406628  0.38924981  0.06070241    -0.20100
C384        C  0.04032540  0.41868523  0.06855517    -0.18600
C385        C  0.02199968  0.44807820  0.07304258     0.20600
C386        C  0.98668393  0.44878998  0.06815895     0.02700
C387        C  0.46958047  0.47944122  0.07319768    -0.13400
C388        C  0.98671714  0.50742413  0.08491400    -0.11100
C389        C  0.02096434  0.50534379  0.09154140     0.02200
C390        C  0.03866296  0.47646325  0.08407725    -0.23300
H391        H  0.39327073  0.38590153  0.04185301     0.10200
H392        H  0.41889918  0.43821475  0.05505694     0.13800
H393        H  0.98864132  0.33588661  0.54925321     0.12500
H394        H  0.03877930  0.36661095  0.05799570     0.13700
H395        H  0.06726515  0.41824353  0.07203981     0.12700
H396        H  0.44294470  0.48224180  0.06969863     0.09800
H397        H  0.47306788  0.53015801  0.09053014     0.13100
H398        H  0.06522715  0.47575436  0.08900271     0.15000
C399        C  0.07986990  0.30074523  0.24041056    -0.00600
C400        C  0.05009136  0.30121483  0.25899184    -0.08600
C401        C  0.01997145  0.31016306  0.24401525    -0.17400
C402        C  0.01873056  0.31831023  0.20962474     0.05000
C403        C  0.04931356  0.31941053  0.19134082     0.19200
C404        C  0.07929119  0.31037280  0.20667482    -0.18800
C405        C  0.04980755  0.32872664  0.15760066    -0.20100
C406        C  0.02025859  0.33670150  0.14135818    -0.18600
C407        C  0.48971178  0.33496498  0.15841873     0.20600
C408        C  0.48829603  0.32525384  0.19265524     0.02700
C409        C  0.45644214  0.32277024  0.20823965    -0.13400
C410        C  0.42749215  0.33168738  0.19094355    -0.11100
C411        C  0.42979423  0.34301971  0.15803097     0.02200
C412        C  0.46051305  0.34377806  0.14162439    -0.23300
H413        H  0.04979735  0.29358182  0.28502947     0.10200
H414        H  0.49814022  0.31004401  0.25993925     0.13800
H415        H  0.10216914  0.31029121  0.19194554     0.12500
H416        H  0.07316510  0.32979960  0.14369160     0.13700
H417        H  0.02124367  0.34393096  0.11524069     0.12700
H418        H  0.45308609  0.31458386  0.23374450     0.09800
H419        H  0.40348238  0.33146995  0.20367468     0.13100
H420        H  0.46161395  0.35322701  0.11629028     0.15000
C421        C  0.11133917  0.20716946  0.29829947    -0.00600
C422        C  0.13024515  0.17777154  0.30009900    -0.08600
C423        C  0.11514017  0.14751809  0.30803768    -0.17400
C424        C  0.08023466  0.14564764  0.31356875     0.05000
C425        C  0.06117148  0.17565170  0.31200161     0.19200
C426        C  0.07676899  0.20589215  0.30438016    -0.18800
C427        C  0.02658691  0.17534487  0.31775312    -0.20100
C428        C  0.01053785  0.14582385  0.32609609    -0.18600
C429        C  0.02869672  0.11602006  0.32809590     0.20600
C430        C  0.06360868  0.11518460  0.32096724     0.02700
C431        C  0.08033768  0.08392610  0.32211056    -0.13400
C432        C  0.06348796  0.05531228  0.33270035    -0.11100
C433        C  0.02987602  0.05735593  0.34191563     0.02200
C434        C  0.01232963  0.08711439  0.33838713    -0.23300
H435        H  0.15681671  0.17794296  0.29447874     0.10200
H436        H  0.13148072  0.12611230  0.30934945     0.13800
H437        H  0.06164063  0.22835299  0.30251727     0.12500
H438        H  0.01193369  0.19813720  0.31623568     0.13700
H439        H  0.98384992  0.14633330  0.33120994     0.12700
H440        H  0.10642590  0.08086483  0.31580591     0.09800
H441        H  0.07696312  0.03192782  0.33530203     0.13100
H442        H  0.98630041  0.08787870  0.34561383     0.15000
C443        C  0.16956693  0.23880866  0.20610314    -0.00600
C444        C  0.17517809  0.20423880  0.20504293    -0.08600
C445        C  0.18094741  0.18838171  0.17484475    -0.17400
C446        C  0.18158782  0.20678340  0.14472595     0.05000
C447        C  0.17869782  0.24203154  0.14601431     0.19200
C448        C  0.17142435  0.25758294  0.17644704    -0.18800
C449        C  0.18325206  0.26127544  0.11696608    -0.20100
C450        C  0.19274232  0.24604548  0.08708947    -0.18600
C451        C  0.19485884  0.21117692  0.08522577     0.20600
C452        C  0.18662430  0.19124733  0.11353724     0.02700
C453        C  0.18395396  0.15640758  0.10960361    -0.13400
C454        C  0.19494629  0.14159401  0.08041943    -0.11100
C455        C  0.20914440  0.16090797  0.05507713     0.02200
C456        C  0.20640138  0.19573113  0.05597102    -0.23300
H457        H  0.17403139  0.18900143  0.22747442     0.10200
H458        H  0.18557669  0.16180315  0.17583597     0.13800
H459        H  0.16663767  0.28422963  0.17691585     0.12500
H460        H  0.18085362  0.28824185  0.11770438     0.13700
H461        H  0.19823432  0.26148371  0.06541342     0.12700
H462        H  0.17389945  0.14017401  0.12879130     0.09800
H463        H  0.19392289  0.11481644  0.07807577     0.13100
H464        H  0.21544062  0.21052609  0.03503199     0.15000
N465        N  0.22850826  0.14457677  0.53010775    -0.02700
C466        C  0.26278381  0.14308041  0.52948682    -0.00100
C467        C  0.27237455  0.11781066  0.50781499    -0.23000
C468        C  0.24323387  0.10296256  0.49595529    -0.23200
C469        C  0.21652685  0.11954441  0.51059091    -0.00200
H470        H  0.29777241  0.11031590  0.50188143     0.13500
H471        H  0.24186556  0.08172471  0.97918812     0.13600
N472        N  0.01422808  0.03067134  0.85944490    -0.02700
C473        C  0.01315627  0.02802291  0.89347563    -0.00100
C474        C  0.98903602  0.00466255  0.90212911    -0.23000
C475        C  0.47454779  0.99368037  0.87248682    -0.23200
C476        C  0.49007304  0.01068180  0.84647279    -0.00200
H477        H  0.98228011  0.49669018  0.92715774     0.13500
H478        H  0.45425672  0.47580505  0.87026118     0.13600
N479        N  0.40218831  0.35972110  0.64313118    -0.02700
C480        C  0.39896886  0.39362934  0.64215602    -0.00100
C481        C  0.37494475  0.40186862  0.61854708    -0.23000
C482        C  0.36402924  0.37203413  0.60440690    -0.23200
C483        C  0.38165796  0.34633263  0.61970917    -0.00200
H484        H  0.36640438  0.42673310  0.61205961     0.13500
H485        H  0.34558794  0.36950291  0.58471489     0.13600
C486        C  0.11022917  0.28553256  0.75455336     0.81000
N487        N  0.13682254  0.28117964  0.73393643    -0.77300
C488        C  0.15678038  0.25404178  0.73708248     0.83400
N489        N  0.15319927  0.23421302  0.76431856    -0.77300
C490        C  0.12640133  0.23777048  0.78477037     0.83500
N491        N  0.10666935  0.26505778  0.78131715    -0.79000
O492        O  0.16836200  0.36224004  0.90614721    -0.77800
C493        C  0.17273919  0.25204425  0.86182724     0.83300
O494        O  0.27454228  0.29739487  0.86492483    -0.78900
O495        O  0.19892227  0.30934219  0.76171711    -0.80400
O496        O  0.14418451  0.38307196  0.80463727    -0.80200
O497        O  0.18091300  0.40509026  0.87216947    -0.78800
Zn498      Zn  0.19468722  0.32171953  0.88368249     1.55700
O499        O  0.12879073  0.32996339  0.81138120    -0.80200
Cd500      Cd  0.19248117  0.38148058  0.82721534     1.59700
Cd501      Cd  0.25177885  0.32414527  0.82422512     1.59600
O502        O  0.23331956  0.40391999  0.80014939    -0.80200
O503        O  0.20504731  0.33470126  0.83809646    -1.90700
Cd504      Cd  0.17663424  0.30764986  0.80957085     1.59900
O505        O  0.27581251  0.36903087  0.81133814    -0.80100
O506        O  0.17780343  0.25984928  0.83117304    -0.78800
C507        C  0.26637516  0.29602104  0.89615919     0.83800
C508        C  0.16714754  0.39369874  0.89882169     0.83400
O509        O  0.17125482  0.27475279  0.88446220    -0.77700
C510        C  0.12121851  0.36067991  0.80650583     0.84200
O511        O  0.23904533  0.30917795  0.90675409    -0.77800
C512        C  0.26464354  0.39608714  0.79822887     0.84300
C513        C  0.22945444  0.30334431  0.75381999     0.84700
O514        O  0.25205560  0.30062212  0.77649466    -0.80300
N515        N  0.03770895  0.03094102  0.60966428    -0.02700
C516        C  0.03888612  0.03312308  0.64373798    -0.00100
C517        C  0.06337555  0.05601508  0.65242347    -0.23000
C518        C  0.07826502  0.06687030  0.62281354    -0.23200
C519        C  0.06237417  0.05046605  0.59677225    -0.00200
H520        H  0.07000349  0.06377366  0.67748951     0.13500
H521        H  0.09885705  0.08437131  0.62066218     0.13600
N522        N  0.14968379  0.20247578  0.89486774    -0.02700
C523        C  0.15226069  0.16848736  0.89341952    -0.00100
C524        C  0.17597717  0.16017560  0.86950607    -0.23000
C525        C  0.18719714  0.18998126  0.85544043    -0.23200
C526        C  0.17002533  0.21572082  0.87107727    -0.00200
H527        H  0.18397857  0.13526022  0.86264134     0.13500
H528        H  0.20533553  0.19246627  0.83539389     0.13600
N529        N  0.32286485  0.41617177  0.77934690    -0.02700
C530        C  0.28866761  0.41811127  0.77891900    -0.00100
C531        C  0.27927844  0.44409845  0.75795449    -0.23000
C532        C  0.30855919  0.45903863  0.74643005    -0.23200
C533        C  0.33509574  0.44169849  0.76050731    -0.00200
H534        H  0.25394596  0.45199897  0.75232939     0.13500
H535        H  0.31019472  0.48084256  0.73040764     0.13600
C536        C  0.42368195  0.32553298  0.53401499     0.81000
N537        N  0.44365456  0.29833507  0.53138644    -0.77300
C538        C  0.44076218  0.27741447  0.00498605     0.83400
N539        N  0.41386925  0.28053680  0.98459799    -0.77300
C540        C  0.39325363  0.30724414  0.98723319     0.83500
N541        N  0.39665825  0.32790185  0.01380304    -0.79000
O542        O  0.13280075  0.11254096  0.90820978    -0.77800
C543        C  0.12845930  0.50168437  0.95240427     0.83300
O544        O  0.02673747  0.04856828  0.94902844    -0.78900
O545        O  0.10237152  0.05849458  0.55242048    -0.80400
O546        O  0.15748289  0.13261992  0.50836335    -0.80200
O547        O  0.11933456  0.15535749  0.94169840    -0.78800
Zn548      Zn  0.10675889  0.07174257  0.93048771     1.55700
O549        O  0.17249358  0.07928647  0.50267641    -0.80200
Cd550      Cd  0.10896836  0.13141022  0.98679960     1.59700
Cd551      Cd  0.04944287  0.07503264  0.48978613     1.59600
O552        O  0.06903423  0.15404747  0.51485697    -0.80200
O553        O  0.09631060  0.08467821  0.97604843    -1.90700
Cd554      Cd  0.12455308  0.05717101  0.50449207     1.59900
O555        O  0.02606305  0.12038464  0.50233948    -0.80100
O556        O  0.12333342  0.50938148  0.98304256    -0.78800
C557        C  0.03503374  0.04679906  0.91784006     0.83800
C558        C  0.13343526  0.14404604  0.91524997     0.83400
O559        O  0.13011292  0.02454858  0.92975222    -0.77700
C560        C  0.18024752  0.10999296  0.50711595     0.84200
O561        O  0.06254976  0.05951362  0.90708246    -0.77800
C562        C  0.03756832  0.14685210  0.51623230     0.84300
C563        C  0.07168090  0.05337809  0.56038532     0.84700
O564        O  0.04888038  0.05169697  0.53779130    -0.80300
N565        N  0.97947390  0.16738521  0.53435508    -0.02700
C566        C  0.01361899  0.16891362  0.53554574    -0.00100
C567        C  0.02274996  0.19422814  0.55730815    -0.23000
C568        C  0.99325035  0.20896645  0.56867291    -0.23200
C569        C  0.46686369  0.19235360  0.55350405    -0.00200
H570        H  0.04800750  0.20177896  0.56365227     0.13500
H571        H  0.99139876  0.23014530  0.58539067     0.13600
N572        N  0.26327825  0.28101478  0.70449003    -0.02700
C573        C  0.26265806  0.28410084  0.67048435    -0.00100
C574        C  0.23869559  0.30767305  0.66196460    -0.23000
C575        C  0.22365049  0.31812304  0.69158141    -0.23200
C576        C  0.23885674  0.30073824  0.71747149    -0.00200
H577        H  0.23258115  0.31622439  0.63698444     0.13500
H578        H  0.20344566  0.33605979  0.69382618     0.13600
N579        N  0.15095838  0.45205231  0.91916719    -0.02700
C580        C  0.14814208  0.41807802  0.92055562    -0.00100
C581        C  0.12438252  0.40981363  0.94447401    -0.23000
C582        C  0.11358798  0.43960514  0.95879819    -0.23200
C583        C  0.13085210  0.46532783  0.94310438    -0.00200
H584        H  0.11607175  0.38492910  0.95115841     0.13500
H585        H  0.09561676  0.44208298  0.97898440     0.13600
C586        C  0.37565675  0.07424179  0.78003831     0.81000
N587        N  0.40263447  0.07735251  0.80024918    -0.77300
C588        C  0.40656818  0.05681637  0.82691378     0.83400
N589        N  0.38687065  0.02946436  0.82949776    -0.77300
C590        C  0.35973558  0.02592210  0.80955617     0.83500
N591        N  0.35578778  0.04703397  0.78335280    -0.79000
O592        O  0.38262834  0.19996711  0.65675043    -0.77800
C593        C  0.37871062  0.30992896  0.61085213     0.83300
O594        O  0.27629511  0.26364711  0.61487553    -0.78900
O595        O  0.35189262  0.25160504  0.51159177    -0.80400
O596        O  0.40771064  0.17894520  0.55510676    -0.80200
O597        O  0.37077573  0.15680794  0.62308215    -0.78800
Zn598      Zn  0.35666788  0.24031447  0.63359070     1.55700
O599        O  0.42245070  0.23230974  0.56091162    -0.80200
Cd600      Cd  0.35915630  0.18001270  0.57766262     1.59700
Cd601      Cd  0.29935372  0.23673568  0.57458560     1.59600
O602        O  0.31826969  0.15743275  0.55048535    -0.80200
O603        O  0.34627473  0.22676754  0.58826449    -1.90700
Cd604      Cd  0.37432731  0.25397784  0.55928154     1.59900
O605        O  0.27555081  0.19167316  0.56246609    -0.80100
O606        O  0.37311281  0.30196815  0.58037923    -0.78800
C607        C  0.28464292  0.26550762  0.64598493     0.83800
C608        C  0.38403820  0.16847058  0.64982963     0.83400
O609        O  0.38035776  0.28730041  0.63367903    -0.77700
C610        C  0.43041113  0.20166586  0.55641029     0.84200
O611        O  0.31226858  0.25296071  0.65653072    -0.77800
C612        C  0.28681880  0.16495921  0.54892166     0.84300
C613        C  0.32129233  0.25717402  0.00380632     0.84700
O614        O  0.29869197  0.25972871  0.52657280    -0.80300
N615        N  0.40016431  0.11036921  0.67080849    -0.02700
C616        C  0.40268533  0.14431984  0.67221498    -0.00100
C617        C  0.42606317  0.15261759  0.69639342    -0.23000
C618        C  0.43724060  0.12273094  0.71045720    -0.23200
C619        C  0.42029723  0.09698508  0.69462043    -0.00200
H620        H  0.43391621  0.17753097  0.70338243     0.13500
H621        H  0.45520020  0.12020801  0.73060435     0.13600
N622        N  0.07242129  0.39519830  0.78408560    -0.02700
C623        C  0.03824204  0.39384063  0.78572542    -0.00100
C624        C  0.02913867  0.36909104  0.80830322    -0.23000
C625        C  0.05857122  0.35438359  0.81971186    -0.23200
C626        C  0.08491765  0.37047565  0.80380239    -0.00200
H627        H  0.50388726  0.36185532  0.81514441     0.13500
H628        H  0.06040234  0.33350179  0.83690675     0.13600
N629        N  0.28719840  0.27961396  0.95477643    -0.02700
C630        C  0.28818501  0.27717965  0.92069023    -0.00100
C631        C  0.31264062  0.25418033  0.91194682    -0.23000
C632        C  0.32754755  0.24330803  0.94145940    -0.23200
C633        C  0.31178187  0.25986321  0.96750590    -0.00200
H634        H  0.31939311  0.24651730  0.88685563     0.13500
H635        H  0.34817330  0.22582789  0.94353178     0.13600
C636        C  0.17753193  0.48735926  0.52805584     0.81000
N637        N  0.15082482  0.48367524  0.54857625    -0.77300
C638        C  0.14712991  0.50354076  0.57568129     0.83400
N639        N  0.16752348  0.03038078  0.57905791    -0.77300
C640        C  0.19363983  0.03523401  0.55786570     0.83500
N641        N  0.19683925  0.51496104  0.53103481    -0.79000
O642        O  0.02412878  0.01254709  0.69938322    -0.77800
C643        C  0.48032855  0.00810090  0.81019657     0.83300
O644        O  0.48282013  0.40702246  0.76409312    -0.78900
O645        O  0.37939184  0.48188761  0.75366654    -0.80400
O646        O  0.42147238  0.03824687  0.68032453    -0.80200
O647        O  0.48947045  0.00171884  0.65665843    -0.78800
Zn648      Zn  0.50154600  0.48675113  0.74010974     1.55700
O649        O  0.42830850  0.05213345  0.73386604    -0.80200
Cd650      Cd  0.44443174  0.99002146  0.68057753     1.59700
Cd651      Cd  0.44269479  0.42961833  0.73628672     1.59600
O652        O  0.41751072  0.44949361  0.65760040    -0.80200
O653        O  0.45589304  0.47660219  0.72710202    -1.90700
Cd654      Cd  0.42730486  0.00402714  0.75529306     1.59900
O655        O  0.43198821  0.40645237  0.69056460    -0.80100
O656        O  0.44964900  0.00239583  0.80287382    -0.78800
C657        C  0.51397686  0.41536384  0.76617937     0.83800
C658        C  0.01661536  0.01444755  0.66797781     0.83400
O659        O  0.50259268  0.01028261  0.78702260    -0.77700
C660        C  0.42312664  0.06051007  0.70336812     0.84200
O661        O  0.52469569  0.44263907  0.75310239    -0.77800
C662        C  0.41748986  0.41793402  0.66431452     0.84300
C663        C  0.37145651  0.45110808  0.75741040     0.84700
O664        O  0.39406707  0.42828377  0.75806777    -0.80300
C665        C  0.27164082  0.30609521  0.97274140    -0.00600
C666        C  0.29147820  0.33242617  0.98366524    -0.08600
C667        C  0.27699070  0.36191219  0.99427494    -0.17400
C668        C  0.24182497  0.36534061  0.99458037     0.05000
C669        C  0.22178903  0.33665062  0.98827131     0.19200
C670        C  0.23693426  0.30711942  0.97713415    -0.18800
C671        C  0.18697187  0.33811624  0.99224171    -0.20100
C672        C  0.17167162  0.36787904  0.00170873    -0.18600
C673        C  0.19070808  0.39707590  0.00528916     0.20600
C674        C  0.22600617  0.39623959  0.00104270     0.02700
C675        C  0.24401017  0.42636624  0.50229023    -0.13400
C676        C  0.22791496  0.45611614  0.50957434    -0.11100
C677        C  0.19323634  0.45679787  0.51526110     0.02200
C678        C  0.17474412  0.42709936  0.51307597    -0.23300
H679        H  0.31830932  0.33029986  0.98287476     0.10200
H680        H  0.29387380  0.38146372  0.00204149     0.13800
H681        H  0.22186506  0.28569571  0.97011010     0.12500
H682        H  0.17157995  0.31617835  0.98811747     0.13700
H683        H  0.14472233  0.36831441  0.00523238     0.12700
H684        H  0.27052726  0.42797589  0.49721230     0.09800
H685        H  0.24295396  0.47859332  0.51102082     0.13100
H686        H  0.14800777  0.42731428  0.51799090     0.15000
C687        C  0.13286231  0.48866759  0.60616750    -0.00600
C688        C  0.12494389  0.45453932  0.60664988    -0.08600
C689        C  0.11706240  0.43863144  0.63643162    -0.17400
C690        C  0.11732816  0.45637016  0.66687519     0.05000
C691        C  0.12300335  0.49133131  0.66616878     0.19200
C692        C  0.13153990  0.50700000  0.63601782    -0.18800
C693        C  0.12031145  0.51020391  0.69557216    -0.20100
C694        C  0.11069882  0.49502488  0.72547326    -0.18600
C695        C  0.10603856  0.46039505  0.72689507     0.20600
C696        C  0.11131864  0.44052707  0.69789444     0.02700
C697        C  0.11078426  0.40546913  0.70115475    -0.13400
C698        C  0.10084124  0.39097651  0.73094256    -0.11100
C699        C  0.09067630  0.41067360  0.75766211     0.02200
C700        C  0.09530650  0.44524849  0.75668762    -0.23300
H701        H  0.12553784  0.43967045  0.58402555     0.10200
H702        H  0.11046980  0.41252791  0.63480198     0.13800
H703        H  0.13794015  0.03331201  0.63595492     0.12500
H704        H  0.12469527  0.03690881  0.69519998     0.13700
H705        H  0.10729174  0.51030969  0.74760160     0.12700
H706        H  0.11789852  0.38872697  0.68121988     0.09800
H707        H  0.09964292  0.36427346  0.73299574     0.13100
H708        H  0.08873447  0.46021700  0.77833338     0.15000
C709        C  0.37309735  0.09343158  0.65532712    -0.00600
C710        C  0.37609948  0.08162594  0.62267550    -0.08600
C711        C  0.34749076  0.07239983  0.60497296    -0.17400
C712        C  0.31528452  0.07534620  0.61978485     0.05000
C713        C  0.31316225  0.08623839  0.65357594     0.19200
C714        C  0.34204241  0.09466738  0.67095923    -0.18800
C715        C  0.28221273  0.09007596  0.66947723    -0.20100
C716        C  0.25285794  0.08339245  0.65244864    -0.18600
C717        C  0.25400430  0.07224810  0.61936133     0.20600
C718        C  0.28511987  0.06825939  0.60238543     0.02700
C719        C  0.28461191  0.05698855  0.56893544    -0.13400
C720        C  0.25455024  0.04835981  0.55369015    -0.11100
C721        C  0.22411548  0.05106440  0.57107394     0.02200
C722        C  0.22408671  0.06380351  0.60363917    -0.23300
H723        H  0.40036385  0.08127270  0.61043700     0.10200
H724        H  0.35135607  0.06418577  0.57959174     0.13800
H725        H  0.34042959  0.10474075  0.69598503     0.12500
H726        H  0.28070698  0.09843538  0.69518096     0.13700
H727        H  0.22913150  0.08653285  0.66538237     0.12700
H728        H  0.30696798  0.05372073  0.55412667     0.09800
H729        H  0.25541294  0.03840708  0.52851245     0.13100
H730        H  0.20073742  0.06600215  0.61745040     0.15000
C731        C  0.17859312  0.46899847  0.90449163    -0.00600
C732        C  0.20734743  0.47274742  0.92356498    -0.08600
C733        C  0.23715001  0.48234687  0.90886778    -0.17400
C734        C  0.23880942  0.48803839  0.87405107     0.05000
C735        C  0.20858604  0.48730013  0.85517268     0.19200
C736        C  0.17856451  0.47757135  0.87060460    -0.18800
C737        C  0.20894275  0.99521615  0.82099378    -0.20100
C738        C  0.23881337  0.00415587  0.80536547    -0.18600
C739        C  0.26902850  0.00356196  0.82319726     0.18600
C740        C  0.26945567  0.49452240  0.85750926     0.02700
C741        C  0.30063765  0.49172953  0.87388828    -0.13400
C742        C  0.32996950  0.00048844  0.85776656    -0.11100
C743        C  0.32945356  0.01116573  0.82434191     0.02200
C744        C  0.29890604  0.01215788  0.80703668    -0.23300
H745        H  0.20677278  0.46655379  0.94971933     0.10200
H746        H  0.25834292  0.48477892  0.92538926     0.13800
H747        H  0.15571896  0.47489554  0.85616248     0.12500
H748        H  0.18601140  0.99484682  0.80644806     0.13700
H749        H  0.23840490  0.01090129  0.77905968     0.12700
H750        H  0.30330832  0.48285380  0.89924077     0.09800
H751        H  0.35323853  0.49881402  0.87154192     0.13100
H752        H  0.29817967  0.02050336  0.78120076     0.15000
C753        C  0.36075782  0.10506240  0.76673337    -0.00600
C754        C  0.37992071  0.13427414  0.76469320    -0.08600
C755        C  0.36512915  0.16460647  0.75640298    -0.17400
C756        C  0.33018291  0.16687398  0.75137864     0.05000
C757        C  0.31063937  0.13735692  0.75486369     0.19200
C758        C  0.32607100  0.10682663  0.76163777    -0.18800
C759        C  0.27571108  0.13849012  0.75226863    -0.20100
C760        C  0.25967451  0.16834675  0.74523913    -0.18600
C761        C  0.27834410  0.19745858  0.74015679     0.20600
C762        C  0.31385439  0.19735598  0.74336806     0.02700
C763        C  0.33141554  0.22761222  0.73757014    -0.13400
C764        C  0.31438540  0.25615519  0.72715902    -0.11100
C765        C  0.27984180  0.25498259  0.72217676     0.02200
C766        C  0.26178874  0.22641624  0.73026623    -0.23300
H767        H  0.40645708  0.13388992  0.77034737     0.10200
H768        H  0.38161871  0.18590301  0.75524151     0.13800
H769        H  0.31064493  0.08464825  0.76424778     0.12500
H770        H  0.26071693  0.11610081  0.75553129     0.13700
H771        H  0.23259628  0.16849583  0.74295665     0.12700
H772        H  0.35827673  0.22973252  0.73941806     0.09800
H773        H  0.32830184  0.27859540  0.72094350     0.13100
H774        H  0.23497286  0.22634786  0.72662785     0.15000
C775        C  0.46133873  0.15120327  0.00881955    -0.00600
C776        C  0.45496820  0.11700466  0.01038562    -0.08600
C777        C  0.44439453  0.10020538  0.98179318    -0.17400
C778        C  0.44028225  0.11765262  0.95112258     0.05000
C779        C  0.44464845  0.15292678  0.95098778     0.19200
C780        C  0.45452803  0.16923524  0.97993262    -0.18800
C781        C  0.44095969  0.17157665  0.92163896    -0.20100
C782        C  0.43430818  0.15572708  0.89170468    -0.18600
C783        C  0.43075065  0.12100912  0.89074634     0.20600
C784        C  0.43304360  0.10145341  0.92043429     0.02700
C785        C  0.42811676  0.06660494  0.91799890    -0.13400
C786        C  0.42075263  0.05197595  0.88736421    -0.11100
C787        C  0.41922040  0.07131170  0.85814725     0.02200
C788        C  0.42433768  0.10584728  0.86012568    -0.23300
H789        H  0.95997545  0.10319629  0.53288783     0.10200
H790        H  0.44110961  0.07357924  0.98420328     0.13800
H791        H  0.45950182  0.19575324  0.97960638     0.12500
H792        H  0.44400867  0.19847655  0.92167689     0.13700
H793        H  0.43212299  0.17069585  0.86913291     0.12700
H794        H  0.42897134  0.05004772  0.93929936     0.09800
H795        H  0.41535451  0.02546836  0.88675155     0.13100
H796        H  0.42235770  0.12136422  0.83790642     0.15000
C797        C  0.34165536  0.40021455  0.80502778    -0.00600
C798        C  0.35241015  0.41963101  0.83170278    -0.08600
C799        C  0.36272118  0.40477040  0.86105743    -0.17400
C800        C  0.36268591  0.36972355  0.86394727     0.05000
C801        C  0.35773079  0.35012396  0.83479173     0.19200
C802        C  0.34663419  0.36561119  0.80530892    -0.18800
C803        C  0.36266105  0.31547797  0.83602967    -0.20100
C804        C  0.37165801  0.30011314  0.86609322    -0.18600
C805        C  0.37318269  0.31882212  0.89571836     0.20600
C806        C  0.36731887  0.35371796  0.89495063     0.02700
C807        C  0.36480536  0.37130294  0.92532060    -0.13400
C808        C  0.37116394  0.35546926  0.95534886    -0.11100
C809        C  0.37992746  0.32155660  0.95613219     0.02200
C810        C  0.38045433  0.30318669  0.92620417    -0.23300
H811        H  0.35114484  0.44640417  0.83007740     0.10200
H812        H  0.37026951  0.42114593  0.88114136     0.13800
H813        H  0.33988759  0.35090261  0.78356873     0.12500
H814        H  0.35972082  0.30034381  0.81374692     0.13700
H815        H  0.37606677  0.27337697  0.86645770     0.12700
H816        H  0.35740756  0.39723260  0.92662584     0.09800
H817        H  0.36987432  0.37026488  0.97800212     0.13100
H818        H  0.38716710  0.27693245  0.92649507     0.15000
C819        C  0.47187535  0.26390504  0.99070003    -0.00600
C820        C  0.00133402  0.26347076  0.00969300    -0.08600
C821        C  0.03194561  0.25567095  0.99498500    -0.17400
C822        C  0.03409764  0.24884080  0.96038182     0.05000
C823        C  0.00412534  0.24972527  0.94115967     0.19200
C824        C  0.47353400  0.25683620  0.95642469    -0.18800
C825        C  0.50481777  0.24418575  0.90663024    -0.20100
C826        C  0.03477481  0.23706214  0.89071201    -0.18600
C827        C  0.06444391  0.23483390  0.90910047     0.20600
C828        C  0.06480966  0.24110419  0.94412666     0.02700
C829        C  0.09577753  0.23845309  0.96132710    -0.13400
C830        C  0.12455966  0.22780953  0.94462859    -0.11100
C831        C  0.12299837  0.21993509  0.91069526     0.02200
C832        C  0.09357946  0.22479933  0.89285872    -0.23300
H833        H  0.00093336  0.27011935  0.03595666     0.10200
H834        H  0.05345031  0.25593607  0.01126378     0.13800
H835        H  0.45111796  0.25796420  0.94112915     0.12500
H836        H  0.48204384  0.24528729  0.89186112     0.13700
H837        H  0.03465735  0.23268733  0.86396051     0.12700
H838        H  0.09836122  0.24313173  0.98774929     0.09800
H839        H  0.14761153  0.22397069  0.95843684     0.13100
H840        H  0.09315193  0.21852420  0.86662266     0.15000
C841        C  0.43876480  0.35678211  0.54597514    -0.00600
C842        C  0.41990564  0.38628564  0.54711386    -0.08600
C843        C  0.43512121  0.41668775  0.55446922    -0.17400
C844        C  0.47004103  0.41852321  0.56006461     0.05000
C845        C  0.98915860  0.38863547  0.55758468     0.19200
C846        C  0.47344458  0.35829643  0.55105254    -0.18800
C847        C  0.02395489  0.38903485  0.56155534    -0.20100
C848        C  0.04022432  0.41842631  0.56953068    -0.18600
C849        C  0.02195962  0.44790295  0.57369663     0.20600
C850        C  0.98670046  0.44872354  0.56845494     0.02700
C851        C  0.46968239  0.47949176  0.57307094    -0.13400
C852        C  0.98682538  0.50750145  0.58472181    -0.11100
C853        C  0.02099778  0.50533048  0.59168297     0.02200
C854        C  0.03862385  0.47629481  0.58469626    -0.23300
H855        H  0.39328742  0.38599504  0.54178427     0.10200
H856        H  0.41894602  0.43825435  0.55512035     0.13800
H857        H  0.98877736  0.33600331  0.04870536     0.12500
H858        H  0.03862877  0.36635261  0.55900569     0.13700
H859        H  0.06712416  0.41790273  0.57328562     0.12700
H860        H  0.44310495  0.48239122  0.56923028     0.09800
H861        H  0.47322952  0.53034812  0.58999644     0.13100
H862        H  0.06511532  0.47551077  0.58993305     0.15000
C863        C  0.07977015  0.30060479  0.74050330    -0.00600
C864        C  0.05002619  0.30116554  0.75914090    -0.08600
C865        C  0.01987086  0.31003397  0.74417637    -0.17400
C866        C  0.01856083  0.31800757  0.70974690     0.05000
C867        C  0.04910425  0.31894634  0.69138465     0.19200
C868        C  0.07911221  0.31000430  0.70670820    -0.18800
C869        C  0.04953634  0.32802776  0.65758309    -0.20100
C870        C  0.01997252  0.33598450  0.64137006    -0.18600
C871        C  0.48947361  0.33450448  0.65853072     0.20600
C872        C  0.48810477  0.32497472  0.69281811     0.02700
C873        C  0.45627753  0.32273829  0.70849792    -0.13400
C874        C  0.42733114  0.33177254  0.69124347    -0.11100
C875        C  0.42961671  0.34296172  0.65827779     0.02200
C876        C  0.46028500  0.34342211  0.64178150    -0.23300
H877        H  0.04979214  0.29367656  0.78522042     0.10200
H878        H  0.49806925  0.31000046  0.76014103     0.13800
H879        H  0.10195475  0.30982679  0.69192536     0.12500
H880        H  0.07285968  0.32894645  0.64360549     0.13700
H881        H  0.02090939  0.34302416  0.61520510     0.12700
H882        H  0.45295023  0.31468373  0.73404873     0.09800
H883        H  0.40335384  0.33174969  0.70403677     0.13100
H884        H  0.46136738  0.35273320  0.61640367     0.15000
C885        C  0.11135182  0.20718053  0.79840813    -0.00600
C886        C  0.13021680  0.17774811  0.80007993    -0.08600
C887        C  0.11508553  0.14750117  0.80798850    -0.17400
C888        C  0.08019661  0.14567917  0.81363772     0.05000
C889        C  0.06118122  0.17571929  0.81222376     0.19200
C890        C  0.07680010  0.20594587  0.80460168    -0.18800
C891        C  0.02662402  0.17546423  0.81814340    -0.20100
C892        C  0.01056768  0.14596181  0.82653732    -0.18600
C893        C  0.02868126  0.11612109  0.82837613     0.20600
C894        C  0.06354731  0.11523100  0.82103222     0.02700
C895        C  0.08021389  0.08393398  0.82196771    -0.13400
C896        C  0.06337024  0.05532670  0.83258058    -0.11100
C897        C  0.02982452  0.05741884  0.84202001     0.02200
C898        C  0.01232185  0.08722760  0.83870913    -0.23300
H899        H  0.15677334  0.17788829  0.79438696     0.10200
H900        H  0.13139465  0.12606564  0.80920900     0.13800
H901        H  0.06170296  0.22843596  0.80284768     0.12500
H902        H  0.01200298  0.19828335  0.81673436     0.13700
H903        H  0.98390983  0.14651166  0.83180665     0.12700
H904        H  0.10624906  0.08083396  0.81546289     0.09800
H905        H  0.07680541  0.03190157  0.83501157     0.13100
H906        H  0.98634456  0.08803229  0.84612461     0.15000
C907        C  0.16952633  0.23882005  0.70620283    -0.00600
C908        C  0.17514939  0.20425093  0.70514574    -0.08600
C909        C  0.18092574  0.18839089  0.67494785    -0.17400
C910        C  0.18155547  0.20678802  0.64482548     0.05000
C911        C  0.17863833  0.24203462  0.64610983     0.19200
C912        C  0.17136429  0.25758789  0.67654213    -0.18800
C913        C  0.18316595  0.26127768  0.61705735    -0.20100
C914        C  0.19265832  0.24605248  0.58717938    -0.18600
C915        C  0.19480517  0.21118612  0.58531808     0.20600
C916        C  0.18659809  0.19125195  0.61363513     0.02700
C917        C  0.18394129  0.15641127  0.60969848    -0.13400
C918        C  0.19489586  0.14160849  0.58049253    -0.11100
C919        C  0.20908336  0.16092632  0.55514806     0.02200
C920        C  0.20634258  0.19574872  0.55605551    -0.23300
H921        H  0.17401648  0.18901773  0.72758069     0.10200
H922        H  0.18556896  0.16181456  0.67594110     0.13800
H923        H  0.16656701  0.28423297  0.67700815     0.12500
H924        H  0.18074486  0.28824230  0.61779293     0.13700
H925        H  0.19812525  0.26149302  0.56549876     0.12700
H926        H  0.17390884  0.14017110  0.62889219     0.09800
H927        H  0.19384595  0.11483602  0.57812596     0.13100
H928        H  0.21536848  0.21054997  0.53511528     0.15000
N929        N  0.22845693  0.64462367  0.03000053    -0.02700
C930        C  0.26273070  0.64312619  0.02939662    -0.00100
C931        C  0.27233167  0.61785755  0.00772823    -0.23000
C932        C  0.24319644  0.60300463  0.99586198    -0.23200
C933        C  0.21648635  0.61958316  0.01049325    -0.00200
H934        H  0.29773209  0.61036022  0.00180955     0.13500
H935        H  0.24171701  0.58175210  0.47928920     0.13600
N936        N  0.01422775  0.53060473  0.35934819    -0.02700
C937        C  0.01315903  0.52792981  0.39337856    -0.00100
C938        C  0.98902149  0.50458229  0.40201930    -0.23000
C939        C  0.47452033  0.49363227  0.37237348    -0.23200
C940        C  0.49005131  0.51064332  0.34636990    -0.00200
H941        H  0.98216517  0.99686713  0.42710887     0.13500
H942        H  0.45414488  0.97594988  0.37023031     0.13600
N943        N  0.40212488  0.85971584  0.14298862    -0.02700
C944        C  0.39883174  0.89361284  0.14205880    -0.00100
C945        C  0.37471994  0.90182392  0.11852964    -0.23000
C946        C  0.36381172  0.87197323  0.10440951    -0.23200
C947        C  0.38153781  0.84629499  0.11964134    -0.00200
H948        H  0.36610565  0.92667586  0.11209283     0.13500
H949        H  0.34530686  0.86941692  0.08478023     0.13600
C950        C  0.11017146  0.78555679  0.25435266     0.81000
N951        N  0.13677513  0.78123606  0.23374291    -0.77300
C952        C  0.15676662  0.75412163  0.23689376     0.83400
N953        N  0.15316022  0.73424770  0.26409743    -0.77300
C954        C  0.12631880  0.73773830  0.28450170     0.83500
N955        N  0.10657550  0.76501800  0.28106439    -0.79000
O956        O  0.16828886  0.86225995  0.40603557    -0.77800
C957        C  0.17261918  0.75200054  0.36164270     0.83300
O958        O  0.27453032  0.79738952  0.36488112    -0.78900
O959        O  0.19888198  0.80940702  0.26163469    -0.80400
O960        O  0.14411998  0.88301356  0.30467804    -0.80200
O961        O  0.18096189  0.90512014  0.37211777    -0.78800
Zn962      Zn  0.19459341  0.82166783  0.38359400     1.55700
O963        O  0.12876637  0.82987797  0.31130690    -0.80200
Cd964      Cd  0.19245013  0.88144999  0.32717877     1.59700
Cd965      Cd  0.25174029  0.82410103  0.32415885     1.59600
O966        O  0.23325227  0.90388864  0.30007280    -0.80200
O967        O  0.20501316  0.83466435  0.33803823    -1.90700
Cd968      Cd  0.17661338  0.80763076  0.30947815     1.59900
O969        O  0.27575243  0.86898290  0.31119972    -0.80100
O970        O  0.17775732  0.75981207  0.33100385    -0.78800
C971        C  0.26632254  0.79596410  0.39610440     0.83800
C972        C  0.16713042  0.89373211  0.39873457     0.83400
O973        O  0.17110177  0.77470479  0.38428512    -0.77700
C974        C  0.12117406  0.86059524  0.30649191     0.84200
O975        O  0.23894532  0.80904987  0.40667060    -0.77800
C976        C  0.26457258  0.89605400  0.29812398     0.84300
C977        C  0.22940706  0.80336957  0.25375231     0.84700
O978        O  0.25198406  0.80055804  0.27644142    -0.80300
N979        N  0.03764823  0.53099594  0.10958616    -0.02700
C980        C  0.03881221  0.53313104  0.14366475    -0.00100
C981        C  0.06329448  0.55601269  0.15239348    -0.23000
C982        C  0.07820336  0.56690403  0.12281024    -0.23200
C983        C  0.06232311  0.55053645  0.09674323    -0.00200
H984        H  0.06990407  0.56374094  0.17747344     0.13500
H985        H  0.09880070  0.58440257  0.12069305     0.13600
N986        N  0.14948759  0.70242447  0.39461699    -0.02700
C987        C  0.15211537  0.66844042  0.39322085    -0.00100
C988        C  0.17587776  0.66013023  0.36935198    -0.23000
C989        C  0.18708941  0.68993586  0.35527645    -0.23200
C990        C  0.16986956  0.71567366  0.37086640    -0.00200
H991        H  0.18393441  0.63521758  0.36254134     0.13500
H992        H  0.20527480  0.69242244  0.33527253     0.13600
N993        N  0.32278144  0.91617203  0.27930310    -0.02700
C994        C  0.28858883  0.91810076  0.27883367    -0.00100
C995        C  0.27921481  0.94409195  0.25786843    -0.23000
C996        C  0.30850921  0.95902896  0.24636744    -0.23200
C997        C  0.33503442  0.94168537  0.26046666    -0.00200
H998        H  0.25388661  0.95199367  0.25222496     0.13500
H999        H  0.31016043  0.98082784  0.23033993     0.13600
C1000       C  0.42370226  0.82539974  0.03394904     0.81000
N1001       N  0.44366595  0.79819755  0.03132758    -0.77300
C1002       C  0.44065151  0.77743100  0.50487770     0.83400
N1003       N  0.41372152  0.78059628  0.48455520    -0.77300
C1004       C  0.39312404  0.80731013  0.48727082     0.83500
N1005       N  0.39660778  0.82794973  0.51384439    -0.79000
O1006       O  0.13271454  0.61250076  0.40809774    -0.77800
C1007       C  0.12838189  0.00171029  0.45232253     0.83300
O1008       O  0.02671174  0.54846204  0.44894511    -0.78900
O1009       O  0.10234607  0.55854103  0.05242007    -0.80400
O1010       O  0.15745474  0.63265487  0.00824669    -0.80200
O1011       O  0.11924660  0.65534517  0.44154775    -0.78800
Zn1012     Zn  0.10671763  0.57171862  0.43043829     1.55700
O1013       O  0.17246288  0.57930515  0.00266916    -0.80200
Cd1014     Cd  0.10884196  0.63143382  0.48666561     1.59700
Cd1015     Cd  0.04942377  0.57512510  0.98976478     1.59600
O1016       O  0.06903105  0.65414290  0.01478425    -0.80200
O1017       O  0.09621600  0.58468685  0.47597635    -1.90700
Cd1018     Cd  0.12453258  0.55718870  0.00450520     1.59900
O1019       O  0.02605363  0.62050589  0.00225792    -0.80100
O1020       O  0.12332141  0.00938763  0.48297713    -0.78800
C1021       C  0.03502714  0.54669254  0.41775992     0.83800
C1022       C  0.13333056  0.64401289  0.41509880     0.83400
O1023       O  0.13014827  0.52457971  0.42978554    -0.77700
C1024       C  0.18021428  0.61002151  0.00703994     0.84200
O1025       O  0.06254650  0.55940956  0.40701746    -0.77800
C1026       C  0.03756035  0.64696714  0.01615795     0.84300
C1027       C  0.07164486  0.55347716  0.06037138     0.84700
O1028       O  0.04884301  0.55184425  0.03777710    -0.80300
N1029       N  0.97946324  0.66742164  0.03442614    -0.02700
C1030       C  0.01361340  0.66902923  0.03549077    -0.00100
C1031       C  0.02275597  0.69441385  0.05716905    -0.23000
C1032       C  0.99325920  0.70910738  0.06860658    -0.23200
C1033       C  0.46685855  0.69239989  0.05356687    -0.00200
H1034       H  0.04801689  0.70204449  0.06340424     0.13500
H1035       H  0.99141578  0.73032673  0.08527380     0.13600
N1036       N  0.26325117  0.78106991  0.20444398    -0.02700
C1037       C  0.26263894  0.78414156  0.17043767    -0.00100
C1038       C  0.23868481  0.80771832  0.16190436    -0.23000
C1039       C  0.22363448  0.81818053  0.19151477    -0.23200
C1040       C  0.23882952  0.80079577  0.21741088    -0.00200
H1041       H  0.23257041  0.81625528  0.13691924     0.13500
H1042       H  0.20342645  0.83611489  0.19374982     0.13600
N1043       N  0.15089296  0.95210373  0.41906484    -0.02700
C1044       C  0.14810206  0.91812251  0.42044583    -0.00100
C1045       C  0.12431926  0.90984728  0.44433889    -0.23000
C1046       C  0.11350258  0.93962794  0.45866831    -0.23200
C1047       C  0.13076449  0.96536025  0.44299421    -0.00200
H1048       H  0.11600586  0.88495895  0.45100363     0.13500
H1049       H  0.09552091  0.94209197  0.47884674     0.13600
C1050       C  0.37555809  0.57422692  0.27970731     0.81000
N1051       N  0.40255486  0.57731497  0.29989682    -0.77300
C1052       C  0.40649163  0.55677842  0.32655829     0.83400
N1053       N  0.38677942  0.52943743  0.32914671    -0.77300
C1054       C  0.35961135  0.52593414  0.30924045     0.83500
N1055       N  0.35568114  0.54702672  0.28302065    -0.79000
O1056       O  0.38255383  0.69988982  0.15669501    -0.77800
C1057       C  0.37862183  0.80988942  0.11079392     0.83300
O1058       O  0.27626030  0.76366428  0.11483847    -0.78900
O1059       O  0.35184927  0.75157597  0.01157221    -0.80400
O1060       O  0.40771688  0.67890887  0.05531212    -0.80200
O1061       O  0.37049457  0.65670636  0.12313460    -0.78800
Zn1062     Zn  0.35660426  0.74027121  0.13356108     1.55700
O1063       O  0.42239656  0.73231560  0.06091136    -0.80200
Cd1064     Cd  0.35906667  0.67996991  0.07769740     1.59700
Cd1065     Cd  0.29928932  0.73672168  0.07455914     1.59600
O1066       O  0.31820698  0.65746496  0.05041771    -0.80200
O1067       O  0.34619931  0.72673125  0.08825015    -1.90700
Cd1068     Cd  0.37425701  0.75393450  0.05926476     1.59900
O1069       O  0.27546937  0.69166443  0.06246400    -0.80100
O1070       O  0.37301266  0.80192465  0.08032636    -0.78800
C1071       C  0.28460606  0.76551795  0.14594847     0.83800
C1072       C  0.38386995  0.66837719  0.14982119     0.83400
O1073       O  0.38030108  0.78726235  0.13362236    -0.77700
C1074       C  0.43039154  0.70166605  0.05651611     0.84200
O1075       O  0.31221330  0.75293666  0.15650168    -0.77800
C1076       C  0.28675239  0.66498277  0.04886679     0.84300
C1077       C  0.32121898  0.75715309  0.50378859     0.84700
O1078       O  0.29864574  0.75971034  0.02653913    -0.80300
N1079       N  0.40005869  0.61027723  0.17078385    -0.02700
C1080       C  0.40256651  0.64423012  0.17217048    -0.00100
C1081       C  0.42603300  0.65254177  0.19625884    -0.23000
C1082       C  0.43727144  0.62266442  0.21029427    -0.23200
C1083       C  0.42027719  0.59691026  0.19452882    -0.00200
H1084       H  0.43390815  0.67745983  0.20320601     0.13500
H1085       H  0.45530056  0.62015435  0.23038085     0.13600
N1086       N  0.07239179  0.89510197  0.28405649    -0.02700
C1087       C  0.03820638  0.89367444  0.28558795    -0.00100
C1088       C  0.02908507  0.86884526  0.30807153    -0.23000
C1089       C  0.05850920  0.85416258  0.31952991    -0.23200
C1090       C  0.08487002  0.87035287  0.30374962    -0.00200
H1091       H  0.50382792  0.86153588  0.31481007     0.13500
H1092       H  0.06032834  0.83322622  0.33665944     0.13600
N1093       N  0.28708298  0.77949669  0.45474411    -0.02700
C1094       C  0.28814644  0.77714260  0.42065040    -0.00100
C1095       C  0.31272940  0.75427704  0.41190592    -0.23000
C1096       C  0.32762741  0.74340465  0.44142344    -0.23200
C1097       C  0.31173237  0.75982635  0.46747612    -0.00200
H1098       H  0.31958509  0.74671958  0.38681000     0.13500
H1099       H  0.34834578  0.72603338  0.44349512     0.13600
C1100       C  0.17755443  0.98742062  0.02816566     0.81000
N1101       N  0.15087960  0.98366106  0.04871718    -0.77300
C1102       C  0.14714137  0.00353134  0.07581494     0.83400
N1103       N  0.16733228  0.53045533  0.07918204    -0.77300
C1104       C  0.19344417  0.53534590  0.05799462     0.83500
N1105       N  0.19682085  0.01504598  0.03116072    -0.79000
O1106       O  0.02407883  0.51251257  0.19928899    -0.77800
C1107       C  0.48029989  0.50808373  0.31009547     0.83300
O1108       O  0.48278201  0.90687176  0.26395354    -0.78900
O1109       O  0.37935953  0.98183924  0.25362018    -0.80400
O1110       O  0.42141599  0.53817662  0.18025185    -0.80200
O1111       O  0.48941460  0.50170516  0.15656492    -0.78800
Zn1112     Zn  0.50151437  0.98662542  0.24004918     1.55700
O1113       O  0.42834373  0.55207132  0.23377584    -0.80200
Cd1114     Cd  0.44441257  0.48998750  0.18049865     1.59700
Cd1115     Cd  0.44261916  0.92951775  0.23621714     1.59600
O1116       O  0.41742073  0.94946180  0.15750719    -0.80200
O1117       O  0.45585228  0.97649222  0.22704490    -1.90700
Cd1118     Cd  0.42730706  0.50396551  0.25519994     1.59900
O1119       O  0.43183099  0.90640714  0.19048208    -0.80100
O1120       O  0.44963260  0.50231749  0.30277860    -0.78800
C1121       C  0.51394136  0.91521086  0.26604963     0.83800
C1122       C  0.01655619  0.51442912  0.16788649     0.83400
O1123       O  0.50254701  0.51033685  0.28691332    -0.77700
C1124       C  0.42311957  0.56044301  0.20328513     0.84200
O1125       O  0.52465614  0.94250242  0.25300822    -0.77800
C1126       C  0.41735803  0.91790586  0.16422358     0.84300
C1127       C  0.37140396  0.95106721  0.25738290     0.84700
O1128       O  0.39400066  0.92822651  0.25804960    -0.80300
C1129       C  0.27147164  0.80593305  0.47272944    -0.00600
C1130       C  0.29130297  0.83218288  0.48386176    -0.08600
C1131       C  0.27682076  0.86168293  0.49442151    -0.17400
C1132       C  0.24166644  0.86518707  0.49450097     0.05000
C1133       C  0.22160267  0.83654642  0.48807565     0.19200
C1134       C  0.23674430  0.80700595  0.47695842    -0.18800
C1135       C  0.18677437  0.83807635  0.49192816    -0.20100
C1136       C  0.17150764  0.86785294  0.50141928    -0.18600
C1137       C  0.19058993  0.89701360  0.50507110     0.20600
C1138       C  0.22589007  0.89611293  0.50088651     0.02700
C1139       C  0.24407911  0.92647052  0.00239966    -0.13400
C1140       C  0.22797875  0.95621910  0.00970206    -0.11100
C1141       C  0.19328048  0.95690903  0.01528291     0.02200
C1142       C  0.17476851  0.92724320  0.01291059    -0.23300
H1143       H  0.31813326  0.82998405  0.48327352     0.10200
H1144       H  0.29368939  0.88118494  0.50234948     0.13800
H1145       H  0.22166892  0.78562379  0.46982289     0.12500
H1146       H  0.17135381  0.81617397  0.48772414     0.13700
H1147       H  0.14455397  0.86833103  0.50489738     0.12700
H1148       H  0.27062166  0.92805894  0.99744649     0.09800
H1149       H  0.24303154  0.97867733  0.01129292     0.13100
H1150       H  0.14801491  0.92747205  0.01772918     0.15000
C1151       C  0.13285831  0.98866628  0.10629666    -0.00600
C1152       C  0.12496271  0.95453218  0.10679684    -0.08600
C1153       C  0.11718379  0.93861988  0.13660331    -0.17400
C1154       C  0.11744628  0.95638558  0.16702926     0.05000
C1155       C  0.12299758  0.99136137  0.16629454     0.19200
C1156       C  0.13151758  0.00701824  0.13613627    -0.18800
C1157       C  0.12018394  0.01025534  0.19567526    -0.20100
C1158       C  0.11051896  0.99507648  0.22556294    -0.18600
C1159       C  0.10600139  0.96042811  0.22700800     0.20600
C1160       C  0.11149920  0.94055419  0.19805619     0.02700
C1161       C  0.11123450  0.90550215  0.20136693    -0.13400
C1162       C  0.10125005  0.89098838  0.23112818    -0.11100
C1163       C  0.09072705  0.91065990  0.25773402     0.02200
C1164       C  0.09518462  0.94526009  0.25675768    -0.23300
H1165       H  0.12555830  0.93965333  0.08417896     0.10200
H1166       H  0.11064956  0.91249562  0.13502069     0.13800
H1167       H  0.13778806  0.53337928  0.13607033     0.12500
H1168       H  0.12446176  0.53702776  0.19530010     0.13700
H1169       H  0.10696685  0.01037240  0.24766059     0.12700
H1170       H  0.11860128  0.88880089  0.18148554     0.09800
H1171       H  0.10031161  0.86427370  0.23324209     0.13100
H1172       H  0.08841224  0.96021723  0.27834939     0.15000
C1173       C  0.37298722  0.59329423  0.15536549    -0.00600
C1174       C  0.37595312  0.58144251  0.12273005    -0.08600
C1175       C  0.34732399  0.57218006  0.10508525    -0.17400
C1176       C  0.31513774  0.57515572  0.11993616     0.05000
C1177       C  0.31306684  0.58598106  0.15375059     0.19200
C1178       C  0.34196934  0.59445269  0.17107148    -0.18800
C1179       C  0.28214328  0.58974423  0.16972308    -0.20100
C1180       C  0.25276005  0.58311829  0.15271647    -0.18600
C1181       C  0.25385289  0.57213249  0.11957246     0.20600
C1182       C  0.28494598  0.56818611  0.10254388     0.02700
C1183       C  0.28439066  0.55712150  0.06902790    -0.13400
C1184       C  0.25431210  0.54858019  0.05377903    -0.11100
C1185       C  0.22390218  0.55119443  0.07121558     0.02200
C1186       C  0.22390740  0.56380814  0.10383306    -0.23300
H1187       H  0.40019947  0.58108856  0.11045618     0.10200
H1188       H  0.35115942  0.56391845  0.07971532     0.13800
H1189       H  0.34039415  0.60452494  0.19609481     0.12500
H1190       H  0.28067961  0.59802155  0.19545785     0.13700
H1191       H  0.22905335  0.58621074  0.16569800     0.12700
H1192       H  0.30672128  0.55395523  0.05415948     0.09800
H1193       H  0.25514471  0.53874289  0.02855479     0.13100
H1194       H  0.20057143  0.56596910  0.11767251     0.15000
C1195       C  0.17847261  0.96912743  0.40437223    -0.00600
C1196       C  0.20711339  0.97326869  0.42353475    -0.08600
C1197       C  0.23687441  0.98307426  0.40889072    -0.17400
C1198       C  0.23859824  0.98859056  0.37405064     0.05000
C1199       C  0.20843602  0.98757374  0.35509228     0.19200
C1200       C  0.17845792  0.97761950  0.37046379    -0.18800
C1201       C  0.20871204  0.49588589  0.32111330    -0.20100
C1202       C  0.23856480  0.50476879  0.30541508    -0.18600
C1203       C  0.26883640  0.50400732  0.32314676     0.18600
C1204       C  0.26925872  0.99509879  0.35755075     0.02700
C1205       C  0.30041028  0.99242767  0.37400676    -0.13400
C1206       C  0.32986931  0.50064201  0.35752823    -0.11100
C1207       C  0.32930368  0.51131070  0.32410361     0.02200
C1208       C  0.29870535  0.51245770  0.30689290    -0.23300
H1209       H  0.20649154  0.96726771  0.44973221     0.10200
H1210       H  0.25799065  0.98580286  0.42546450     0.13800
H1211       H  0.15567430  0.97472121  0.35596820     0.12500
H1212       H  0.18573490  0.49562416  0.30663699     0.13700
H1213       H  0.23809972  0.51157088  0.27912449     0.12700
H1214       H  0.30303220  0.98372764  0.39942539     0.09800
H1215       H  0.35302602  0.99939264  0.37167405     0.13100
H1216       H  0.29793818  0.52080062  0.28105682     0.15000
C1217       C  0.36064337  0.60506968  0.26648780    -0.00600
C1218       C  0.37983226  0.63426000  0.26442375    -0.08600
C1219       C  0.36505109  0.66461675  0.25622503    -0.17400
C1220       C  0.33009205  0.66693026  0.25132360     0.05000
C1221       C  0.31052241  0.63743312  0.25483480     0.19200
C1222       C  0.32593903  0.60687839  0.26152349    -0.18800
C1223       C  0.27558728  0.63861166  0.25235147    -0.20100
C1224       C  0.25956874  0.66849683  0.24540697    -0.18600
C1225       C  0.27826354  0.69758307  0.24027027     0.20600
C1226       C  0.31378179  0.69743646  0.24338777     0.02700
C1227       C  0.33136828  0.72767015  0.23754761    -0.13400
C1228       C  0.31435895  0.75621130  0.22710714    -0.11100
C1229       C  0.27981042  0.75505989  0.22216295     0.02200
C1230       C  0.26172902  0.72654876  0.23038047    -0.23300
H1231       H  0.40638333  0.63384119  0.27000258     0.10200
H1232       H  0.38156469  0.68589288  0.25503661     0.13800
H1233       H  0.31049644  0.58471435  0.26415689     0.12500
H1234       H  0.26057490  0.61623779  0.25563653     0.13700
H1235       H  0.23248366  0.66868293  0.24320742     0.12700
H1236       H  0.35823376  0.72976856  0.23936167     0.09800
H1237       H  0.32829123  0.77862560  0.22083344     0.13100
H1238       H  0.23490180  0.72651795  0.22681982     0.15000
C1239       C  0.46113079  0.65122472  0.50849986    -0.00600
C1240       C  0.45488515  0.61699970  0.51003522    -0.08600
C1241       C  0.44434723  0.60018344  0.48143788    -0.17400
C1242       C  0.44013272  0.61763834  0.45078712     0.05000
C1243       C  0.44437322  0.65292882  0.45067733     0.19200
C1244       C  0.45420828  0.66925580  0.47963490    -0.18800
C1245       C  0.44062151  0.67157956  0.42133541    -0.20100
C1246       C  0.43405405  0.65571846  0.39138496    -0.18600
C1247       C  0.43059826  0.62098967  0.39040850     0.20600
C1248       C  0.43292079  0.60143220  0.42009224     0.02700
C1249       C  0.42803142  0.56657772  0.41764944    -0.13400
C1250       C  0.42068416  0.55194414  0.38701053    -0.11100
C1251       C  0.41914536  0.57127885  0.35779314     0.02200
C1252       C  0.42423594  0.60581991  0.35977790    -0.23300
H1253       H  0.96044066  0.60308376  0.03295746     0.10200
H1254       H  0.44119181  0.57353939  0.48382180     0.13800
H1255       H  0.45907454  0.69579391  0.47932553     0.12500
H1256       H  0.44357450  0.69849102  0.42138937     0.13700
H1257       H  0.43183842  0.67068889  0.36881725     0.12700
H1258       H  0.42887737  0.55002308  0.43895221     0.09800
H1259       H  0.41529683  0.52543456  0.38639542     0.13100
H1260       H  0.42224302  0.62133810  0.33756091     0.15000
C1261       C  0.34149968  0.90032218  0.30509072    -0.00600
C1262       C  0.35183872  0.91976714  0.33190572    -0.08600
C1263       C  0.36206088  0.90492857  0.36130381    -0.17400
C1264       C  0.36232306  0.86987420  0.36411115     0.05000
C1265       C  0.35770732  0.85030066  0.33487610     0.19200
C1266       C  0.34671841  0.86576184  0.30534579    -0.18800
C1267       C  0.36287202  0.81569045  0.33606040    -0.20100
C1268       C  0.37180359  0.80032197  0.36613225    -0.18600
C1269       C  0.37306300  0.81897730  0.39580018     0.20600
C1270       C  0.36694435  0.85383080  0.39510007     0.02700
C1271       C  0.36422704  0.87132178  0.42551312    -0.13400
C1272       C  0.37067146  0.85546534  0.45551666    -0.11100
C1273       C  0.37967829  0.82161633  0.45622430     0.02200
C1274       C  0.38035900  0.80332149  0.42625782    -0.23300
H1275       H  0.35028697  0.94652870  0.33034622     0.10200
H1276       H  0.36930037  0.92132934  0.38147850     0.13800
H1277       H  0.34023926  0.85104954  0.28352667     0.12500
H1278       H  0.36017402  0.80058757  0.31372527     0.13700
H1279       H  0.37640210  0.77361661  0.36645709     0.12700
H1280       H  0.35663985  0.89719314  0.42687116     0.09800
H1281       H  0.36925781  0.87018933  0.47821047     0.13100
H1282       H  0.38724902  0.77711213  0.42648818     0.15000
C1283       C  0.47172871  0.76391826  0.49051590    -0.00600
C1284       C  0.00120801  0.76344240  0.50947028    -0.08600
C1285       C  0.03178970  0.75562208  0.49472410    -0.17400
C1286       C  0.03389796  0.74880166  0.46011765     0.05000
C1287       C  0.00390018  0.74967728  0.44093372     0.19200
C1288       C  0.47333337  0.75684747  0.45623410    -0.18800
C1289       C  0.50454552  0.74404108  0.40641667    -0.20100
C1290       C  0.03447535  0.73681210  0.39048372    -0.18600
C1291       C  0.06417484  0.73464612  0.40883501     0.20600
C1292       C  0.06459195  0.74105866  0.44383414     0.02700
C1293       C  0.09559950  0.73856206  0.46098543    -0.13400
C1294       C  0.12437289  0.72791019  0.44428671    -0.11100
C1295       C  0.12276697  0.71986611  0.41039958     0.02200
C1296       C  0.09329802  0.72456280  0.39259186    -0.23300
H1297       H  0.00084779  0.77006798  0.53574013     0.10200
H1298       H  0.05330273  0.75582953  0.51099204     0.13800
H1299       H  0.45089469  0.75798910  0.44097254     0.12500
H1300       H  0.48175306  0.74512252  0.39167468     0.13700
H1301       H  0.03431796  0.73233423  0.36374892     0.12700
H1302       H  0.09823823  0.74340909  0.48737088     0.09800
H1303       H  0.14746427  0.72420947  0.45806630     0.13100
H1304       H  0.09283202  0.71814879  0.36638787     0.15000
C1305       C  0.43879970  0.85665002  0.04589146    -0.00600
C1306       C  0.41988030  0.88610257  0.04723206    -0.08600
C1307       C  0.43506666  0.91651687  0.05459733    -0.17400
C1308       C  0.47002143  0.91842605  0.05995371     0.05000
C1309       C  0.98920901  0.88861228  0.05717166     0.19200
C1310       C  0.47351778  0.85824048  0.05071168    -0.18800
C1311       C  0.02405090  0.88912628  0.06073915    -0.20100
C1312       C  0.04031709  0.91856576  0.06856867    -0.18600
C1313       C  0.02199066  0.94795025  0.07311131     0.20600
C1314       C  0.98665740  0.94863831  0.06834924     0.02700
C1315       C  0.46955111  0.97927685  0.07344879    -0.13400
C1316       C  0.98671681  0.00728339  0.08506342    -0.11100
C1317       C  0.02099101  0.00523470  0.09156353     0.02200
C1318       C  0.03867982  0.97635619  0.08406180    -0.23300
H1319       H  0.39323505  0.88576270  0.04204419     0.10200
H1320       H  0.41884842  0.93804609  0.05538654     0.13800
H1321       H  0.98862699  0.83576447  0.54926557     0.12500
H1322       H  0.03876945  0.86649874  0.05796843     0.13700
H1323       H  0.06726811  0.91813858  0.07197106     0.12700
H1324       H  0.44289742  0.98205314  0.07007039     0.09800
H1325       H  0.47306978  0.03000696  0.09072737     0.13100
H1326       H  0.06526203  0.97566521  0.08889251     0.15000
C1327       C  0.07974761  0.80074553  0.24035178    -0.00600
C1328       C  0.04996962  0.80114542  0.25893640    -0.08600
C1329       C  0.01984054  0.81010192  0.24398608    -0.17400
C1330       C  0.01858842  0.81833032  0.20961686     0.05000
C1331       C  0.04916845  0.81949533  0.19133020     0.19200
C1332       C  0.07915587  0.81044205  0.20663708    -0.18800
C1333       C  0.04964902  0.82888417  0.15761087    -0.20100
C1334       C  0.02008856  0.83684926  0.14138726    -0.18600
C1335       C  0.48954625  0.83504376  0.15844687     0.20600
C1336       C  0.48814434  0.82528095  0.19266810     0.02700
C1337       C  0.45629450  0.82275087  0.20825577    -0.13400
C1338       C  0.42733281  0.83165567  0.19097206    -0.11100
C1339       C  0.42962125  0.84302053  0.15806982     0.02200
C1340       C  0.46033729  0.84383739  0.14166502    -0.23300
H1341       H  0.04968346  0.79345572  0.28495751     0.10200
H1342       H  0.49801196  0.80992160  0.25991281     0.13800
H1343       H  0.10203203  0.81040597  0.19190462     0.12500
H1344       H  0.07300311  0.83001044  0.14370034     0.13700
H1345       H  0.02106130  0.84411885  0.11528274     0.12700
H1346       H  0.45294927  0.81453917  0.23375352     0.09800
H1347       H  0.40332452  0.83140230  0.20370564     0.13100
H1348       H  0.46142478  0.85332498  0.11634595     0.15000
C1349       C  0.11126978  0.70711160  0.29807114    -0.00600
C1350       C  0.13016065  0.67769605  0.29977428    -0.08600
C1351       C  0.11504781  0.64743499  0.30768354    -0.17400
C1352       C  0.08015511  0.64558198  0.31331392     0.05000
C1353       C  0.06110737  0.67559819  0.31181650     0.19200
C1354       C  0.07670673  0.70583716  0.30419590    -0.18800
C1355       C  0.02654003  0.67531302  0.31767625    -0.20100
C1356       C  0.01050428  0.64581162  0.32611369    -0.18600
C1357       C  0.02865244  0.61599956  0.32807252     0.20600
C1358       C  0.06353280  0.61513244  0.32078454     0.02700
C1359       C  0.08024131  0.58386201  0.32187219    -0.13400
C1360       C  0.06341608  0.55526814  0.33255750    -0.11100
C1361       C  0.02984730  0.55734425  0.34192476     0.02200
C1362       C  0.01231082  0.58711870  0.33847672    -0.23300
H1363       H  0.15672677  0.67786504  0.29412624     0.10200
H1364       H  0.13137529  0.62601448  0.30892858     0.13800
H1365       H  0.06158710  0.72830950  0.30240595     0.12500
H1366       H  0.01189553  0.69811312  0.31619818     0.13700
H1367       H  0.98383747  0.64634470  0.33134371     0.12700
H1368       H  0.10629617  0.58077718  0.31543882     0.09800
H1369       H  0.07687738  0.53186824  0.33508903     0.13100
H1370       H  0.98631264  0.58791286  0.34583060     0.15000
C1371       C  0.16958228  0.73894927  0.20602036    -0.00600
C1372       C  0.17529246  0.70439527  0.20496999    -0.08600
C1373       C  0.18104794  0.68853717  0.17477382    -0.17400
C1374       C  0.18156725  0.70692099  0.14464501     0.05000
C1375       C  0.17862384  0.74216437  0.14591607     0.19200
C1376       C  0.17136811  0.75771839  0.17635366    -0.18800
C1377       C  0.18309679  0.76139333  0.11684371    -0.20100
C1378       C  0.19255069  0.74615007  0.08695862    -0.18600
C1379       C  0.19470878  0.71128090  0.08511925     0.20600
C1380       C  0.18653960  0.69136847  0.11345898     0.02700
C1381       C  0.18387151  0.65652567  0.10955903    -0.13400
C1382       C  0.19483718  0.64169208  0.08037686    -0.11100
C1383       C  0.20901389  0.66099145  0.05501186     0.02200
C1384       C  0.20624508  0.69581578  0.05587056    -0.23300
H1385       H  0.17422088  0.68916408  0.22740870     0.10200
H1386       H  0.18575084  0.66197070  0.17576775     0.13800
H1387       H  0.16652436  0.78435548  0.17681590     0.12500
H1388       H  0.18067076  0.78835815  0.11756916     0.13700
H1389       H  0.19798585  0.76157674  0.06526035     0.12700
H1390       H  0.17384667  0.64030799  0.12877697     0.09800
H1391       H  0.19382783  0.61491192  0.07805810     0.13100
H1392       H  0.21526393  0.71059723  0.03491370     0.15000
N1393       N  0.22839447  0.64465535  0.53005109    -0.02700
C1394       C  0.26266969  0.64314664  0.52945675    -0.00100
C1395       C  0.27227003  0.61786384  0.50780513    -0.23000
C1396       C  0.24313603  0.60301171  0.49593946    -0.23200
C1397       C  0.21642487  0.61960883  0.51054770    -0.00200
H1398       H  0.29767013  0.61035735  0.50189665     0.13500
H1399       H  0.24177688  0.58175499  0.97919914     0.13600
N1400       N  0.01422510  0.53062903  0.85943302    -0.02700
C1401       C  0.01316602  0.52794565  0.89345913    -0.00100
C1402       C  0.98905746  0.50456881  0.90210018    -0.23000
C1403       C  0.47456398  0.49361002  0.87245143    -0.23200
C1404       C  0.49007416  0.51064503  0.84644987    -0.00200
H1405       H  0.98224633  0.99681065  0.92719173     0.13500
H1406       H  0.45423436  0.97588097  0.87030826     0.13600
N1407       N  0.40201921  0.85972500  0.64320120    -0.02700
C1408       C  0.39879951  0.89363334  0.64222851    -0.00100
C1409       C  0.37477881  0.90187358  0.61861640    -0.23000
C1410       C  0.36387231  0.87203866  0.60446662    -0.23200
C1411       C  0.38150669  0.84633696  0.61976307    -0.00200
H1412       H  0.36624540  0.92673884  0.61212307     0.13500
H1413       H  0.34544528  0.86950893  0.58476100     0.13600
C1414       C  0.11013594  0.78552785  0.75448089     0.81000
N1415       N  0.13673445  0.78122207  0.73385930    -0.77300
C1416       C  0.15674383  0.75411959  0.73700347     0.83400
N1417       N  0.15317056  0.73425651  0.76421772    -0.77300
C1418       C  0.12634415  0.73774426  0.78464276     0.83500
N1419       N  0.10659543  0.76502237  0.78122268    -0.79000
O1420       O  0.16828450  0.86221015  0.90607798    -0.77800
C1421       C  0.17269886  0.75199909  0.86171311     0.83300
O1422       O  0.27454352  0.79740524  0.86487799    -0.78900
O1423       O  0.19889220  0.80937375  0.76167498    -0.80400
O1424       O  0.14415361  0.88302025  0.80457011    -0.80200
O1425       O  0.18085402  0.90505518  0.87210237    -0.78800
Zn1426     Zn  0.19464631  0.82168499  0.88362496     1.55700
O1427       O  0.12877360  0.82991167  0.81133395    -0.80200
Cd1428     Cd  0.19244273  0.88144916  0.82715627     1.59700
Cd1429     Cd  0.25175041  0.82413387  0.82418218     1.59600
O1430       O  0.23326972  0.90390448  0.80008597    -0.80200
O1431       O  0.20501958  0.83467848  0.83805339    -1.90700
Cd1432     Cd  0.17661620  0.80763364  0.80951771     1.59900
O1433       O  0.27576489  0.86901700  0.81126973    -0.80100
O1434       O  0.17777111  0.75982113  0.83106628    -0.78800
C1435       C  0.26636719  0.79602922  0.89610946     0.83800
C1436       C  0.16707017  0.89366971  0.89874624     0.83400
O1437       O  0.17123548  0.77469356  0.88436653    -0.77700
C1438       C  0.12119488  0.86062188  0.80644486     0.84200
O1439       O  0.23902056  0.80916403  0.90668886    -0.77800
C1440       C  0.26459334  0.89607314  0.79816300     0.84300
C1441       C  0.22942224  0.80336581  0.75378462     0.84700
O1442       O  0.25201523  0.80060864  0.77646244    -0.80300
N1443       N  0.03763400  0.53106171  0.60964817    -0.02700
C1444       C  0.03883954  0.53320847  0.64372221    -0.00100
C1445       C  0.06335126  0.55607259  0.65241604    -0.23000
C1446       C  0.07823086  0.56694269  0.62280762    -0.23200
C1447       C  0.06230725  0.55057723  0.59676203    -0.00200
H1448       H  0.07000663  0.56379478  0.67748612     0.13500
H1449       H  0.09884505  0.58441809  0.62066015     0.13600
N1450       N  0.14960439  0.70243119  0.89472197    -0.02700
C1451       C  0.15215610  0.66844124  0.89326275    -0.00100
C1452       C  0.17583651  0.66011938  0.86931715    -0.23000
C1453       C  0.18706785  0.68992168  0.85525295    -0.23200
C1454       C  0.16994353  0.71567003  0.87092756    -0.00200
H1455       H  0.18381276  0.63520035  0.86243665     0.13500
H1456       H  0.20519077  0.69240025  0.83519166     0.13600
N1457       N  0.32281779  0.91618190  0.77934719    -0.02700
C1458       C  0.28862243  0.91809913  0.77886337    -0.00100
C1459       C  0.27925156  0.94406528  0.75786531    -0.23000
C1460       C  0.30854388  0.95901974  0.74638427    -0.23200
C1461       C  0.33506768  0.94170710  0.76052092    -0.00200
H1462       H  0.25392327  0.95193974  0.75218621     0.13500
H1463       H  0.31019327  0.98081088  0.73034591     0.13600
C1464       C  0.42366388  0.82544516  0.53400378     0.81000
N1465       N  0.44363080  0.79824942  0.53132115    -0.77300
C1466       C  0.44071968  0.77735473  0.00489872     0.83400
N1467       N  0.41381162  0.78049782  0.98453801    -0.77300
C1468       C  0.39320056  0.80720460  0.98721534     0.83500
N1469       N  0.39664388  0.82785466  0.01378766    -0.79000
O1470       O  0.13274618  0.61249632  0.90812528    -0.77800
C1471       C  0.12841922  0.00167317  0.95234652     0.83300
O1472       O  0.02671587  0.54853322  0.94900114    -0.78900
O1473       O  0.10230964  0.55856972  0.55241512    -0.80400
O1474       O  0.15738597  0.63267335  0.50827987    -0.80200
O1475       O  0.11926106  0.65533828  0.94157079    -0.78800
Zn1476     Zn  0.10675670  0.57170292  0.93046698     1.55700
O1477       O  0.17241199  0.57933294  0.50267762    -0.80200
Cd1478     Cd  0.10888987  0.63143568  0.98669520     1.59700
Cd1479     Cd  0.04939035  0.57505326  0.48973835     1.59600
O1480       O  0.06894008  0.65410310  0.51470223    -0.80200
O1481       O  0.09625966  0.58468716  0.97600405    -1.90700
Cd1482     Cd  0.12448832  0.55721342  0.50449554     1.59900
O1483       O  0.02598526  0.62041867  0.50220380    -0.80100
O1484       O  0.12335937  0.00935517  0.98300053    -0.78800
C1485       C  0.03503976  0.54671722  0.91782266     0.83800
C1486       C  0.13335731  0.64400951  0.91512785     0.83400
O1487       O  0.13018171  0.52454644  0.92979945    -0.77700
C1488       C  0.18015365  0.61004744  0.50707465     0.84200
O1489       O  0.06257432  0.55939368  0.90706816    -0.77800
C1490       C  0.03747518  0.64690333  0.51607342     0.84300
C1491       C  0.07161632  0.55347478  0.56037674     0.84700
O1492       O  0.04881737  0.55179058  0.53778052    -0.80300
N1493       N  0.97937113  0.66742294  0.53423332    -0.02700
C1494       C  0.01352053  0.66897492  0.53537230    -0.00100
C1495       C  0.02266606  0.69431236  0.55710181    -0.23000
C1496       C  0.99317598  0.70903636  0.56850455    -0.23200
C1497       C  0.46677624  0.69239594  0.55339034    -0.00200
H1498       H  0.04792807  0.70188314  0.56340504     0.13500
H1499       H  0.99133742  0.73022368  0.58521304     0.13600
N1500       N  0.26326931  0.78107225  0.70446787    -0.02700
C1501       C  0.26262808  0.78414147  0.67046136    -0.00100
C1502       C  0.23864212  0.80768836  0.66193672    -0.23000
C1503       C  0.22360014  0.81813961  0.69155250    -0.23200
C1504       C  0.23883119  0.80077760  0.71744265    -0.00200
H1505       H  0.23250036  0.81621091  0.63695337     0.13500
H1506       H  0.20337368  0.83605236  0.69379621     0.13600
N1507       N  0.15089935  0.95203508  0.91909910    -0.02700
C1508       C  0.14804897  0.91806088  0.92045989    -0.00100
C1509       C  0.12423843  0.90980964  0.94433320    -0.23000
C1510       C  0.11345903  0.93960336  0.95866727    -0.23200
C1511       C  0.13077493  0.96531818  0.94301810    -0.00200
H1512       H  0.11588083  0.88493091  0.95097974     0.13500
H1513       H  0.09546117  0.94208684  0.97882911     0.13600
C1514       C  0.37561535  0.57425605  0.77995365     0.81000
N1515       N  0.40260609  0.57733627  0.80015168    -0.77300
C1516       C  0.40653670  0.55678517  0.82680610     0.83400
N1517       N  0.38684352  0.52942820  0.82936571    -0.77300
C1518       C  0.35969881  0.52590824  0.80943142     0.83500
N1519       N  0.35573483  0.54705452  0.78325740    -0.79000
O1520       O  0.38254526  0.69995456  0.65672824    -0.77800
C1521       C  0.37859922  0.80993566  0.61087464     0.83300
O1522       O  0.27624944  0.76369422  0.61485262    -0.78900
O1523       O  0.35183820  0.75161663  0.51158931    -0.80400
O1524       O  0.40762338  0.67896834  0.55507636    -0.80200
O1525       O  0.37067967  0.65678920  0.62306980    -0.78800
Zn1526     Zn  0.35659469  0.74030746  0.63357578     1.55700
O1527       O  0.42236538  0.73233403  0.56088460    -0.80200
Cd1528     Cd  0.35906636  0.68001729  0.57764855     1.59700
Cd1529     Cd  0.29927558  0.73675192  0.57457308     1.59600
O1530       O  0.31815297  0.65748576  0.55046194    -0.80200
O1531       O  0.34619441  0.72676961  0.58825397    -1.90700
Cd1532     Cd  0.37424456  0.75399684  0.55928519     1.59900
O1533       O  0.27542863  0.69170680  0.56248823    -0.80100
O1534       O  0.37300488  0.80198786  0.58039653    -0.78800
C1535       C  0.28459648  0.76553764  0.64596274     0.83800
C1536       C  0.38394889  0.66845656  0.64981394     0.83400
O1537       O  0.38027810  0.78729258  0.63368420    -0.77700
C1538       C  0.43032331  0.70169314  0.55635815     0.84200
O1539       O  0.31220569  0.75295921  0.65651122    -0.77800
C1540       C  0.28669965  0.66501044  0.54891168     0.84300
C1541       C  0.32123492  0.75715576  0.00378209     0.84700
O1542       O  0.29862549  0.75970654  0.52654135    -0.80300
N1543       N  0.40005468  0.61036595  0.67083996    -0.02700
C1544       C  0.40260348  0.64431530  0.67220347    -0.00100
C1545       C  0.42604558  0.65262067  0.69631741    -0.23000
C1546       C  0.43723923  0.62273984  0.71038206    -0.23200
C1547       C  0.42024153  0.59698923  0.69461017    -0.00200
H1548       H  0.43394097  0.67753530  0.70325443     0.13500
H1549       H  0.45525340  0.62022454  0.73048144     0.13600
N1550       N  0.07240098  0.89512323  0.78401017    -0.02700
C1551       C  0.03822117  0.89374286  0.78562942    -0.00100
C1552       C  0.02911725  0.86897234  0.80818359    -0.23000
C1553       C  0.05854954  0.85427712  0.81960324    -0.23200
C1554       C  0.08489504  0.87039809  0.80372366    -0.00200
H1555       H  0.50386590  0.86171821  0.81500521     0.13500
H1556       H  0.06038247  0.83338498  0.83678542     0.13600
N1557       N  0.28717259  0.77961685  0.95474069    -0.02700
C1558       C  0.28818113  0.77720123  0.92065172    -0.00100
C1559       C  0.31265414  0.75421729  0.91191347    -0.23000
C1560       C  0.32754261  0.74333068  0.94143035    -0.23200
C1561       C  0.31174965  0.75986149  0.96747579    -0.00200
H1562       H  0.31942771  0.74657057  0.88682286     0.13500
H1563       H  0.34817431  0.72585776  0.94350680     0.13600
C1564       C  0.17758003  0.98736575  0.52801899     0.81000
N1565       N  0.15088752  0.98366466  0.54855688    -0.77300
C1566       C  0.14720444  0.00351586  0.57567494     0.83400
N1567       N  0.16743957  0.53041478  0.57905171    -0.77300
C1568       C  0.19355600  0.53526649  0.55785843     0.83500
N1569       N  0.19690540  0.01495207  0.53102235    -0.79000
O1570       O  0.02410818  0.51259420  0.69935595    -0.77800
C1571       C  0.48032118  0.50810535  0.81017490     0.83300
O1572       O  0.48278800  0.90696265  0.76405897    -0.78900
O1573       O  0.37937156  0.98189352  0.75368519    -0.80400
O1574       O  0.42140790  0.53824930  0.68032990    -0.80200
O1575       O  0.48943255  0.50180143  0.65663106    -0.78800
Zn1576     Zn  0.50154279  0.98669672  0.74011906     1.55700
O1577       O  0.42831496  0.55214718  0.73385780    -0.80200
Cd1578     Cd  0.44442477  0.49005366  0.68056671     1.59700
Cd1579     Cd  0.44263896  0.92960438  0.73633000     1.59600
O1580       O  0.41745012  0.94948511  0.65762312    -0.80200
O1581       O  0.45587466  0.97657759  0.72712279    -1.90700
Cd1582     Cd  0.42731474  0.50403270  0.75527522     1.59900
O1583       O  0.43181752  0.90644459  0.69063666    -0.80100
O1584       O  0.44965030  0.50236087  0.80285375    -0.78800
C1585       C  0.51395205  0.91528457  0.76611503     0.83800
C1586       C  0.01658100  0.51451787  0.66795415     0.83400
O1587       O  0.50257156  0.51036315  0.78699554    -0.77700
C1588       C  0.42308901  0.56051784  0.70336549     0.84200
O1589       O  0.52467345  0.94256232  0.75304843    -0.77800
C1590       C  0.41735370  0.91793168  0.66437051     0.84300
C1591       C  0.37143183  0.95111911  0.75746526     0.84700
O1592       O  0.39404325  0.92829778  0.75817885    -0.80300
C1593       C  0.27158284  0.80607153  0.97272087    -0.00600
C1594       C  0.29141612  0.83233414  0.98382509    -0.08600
C1595       C  0.27692689  0.86182974  0.99440987    -0.17400
C1596       C  0.24176787  0.86532520  0.99452214     0.05000
C1597       C  0.22171214  0.83668280  0.98807206     0.19200
C1598       C  0.23685899  0.80714517  0.97696000    -0.18800
C1599       C  0.18688075  0.83820156  0.99189046    -0.20100
C1600       C  0.17159501  0.86796589  0.00137649    -0.18600
C1601       C  0.19066433  0.89712490  0.00508488     0.20600
C1602       C  0.22597357  0.89624091  0.00095051     0.02700
C1603       C  0.24401113  0.92633548  0.50223504    -0.13400
C1604       C  0.22794181  0.95609985  0.50951672    -0.11100
C1605       C  0.19325636  0.95681601  0.51516582     0.02200
C1606       C  0.17472290  0.92715187  0.51288166    -0.23300
H1607       H  0.31824816  0.83015220  0.98319653     0.10200
H1608       H  0.29379761  0.88133689  0.00231844     0.13800
H1609       H  0.22178517  0.78576067  0.96982691     0.12500
H1610       H  0.17146909  0.81629874  0.98765604     0.13700
H1611       H  0.14463675  0.86843305  0.00481990     0.12700
H1612       H  0.27054204  0.92790337  0.49720840     0.09800
H1613       H  0.24300901  0.97855414  0.51102376     0.13100
H1614       H  0.14797862  0.92739825  0.51774942     0.15000
C1615       C  0.13292898  0.98863835  0.60615555    -0.00600
C1616       C  0.12501931  0.95450809  0.60663522    -0.08600
C1617       C  0.11714725  0.93859568  0.63641774    -0.17400
C1618       C  0.11739810  0.95633645  0.66686003     0.05000
C1619       C  0.12304935  0.99130052  0.66615443     0.19200
C1620       C  0.13159291  0.00697097  0.63600618    -0.18800
C1621       C  0.12032193  0.01017316  0.69555534    -0.20100
C1622       C  0.11068175  0.99499081  0.72544727    -0.18600
C1623       C  0.10604269  0.96035765  0.72686634     0.20600
C1624       C  0.11138368  0.94049210  0.69787636     0.02700
C1625       C  0.11090455  0.90543479  0.70114363    -0.13400
C1626       C  0.10093711  0.89093443  0.73091979    -0.11100
C1627       C  0.09067458  0.91062267  0.75761047     0.02200
C1628       C  0.09527063  0.94520358  0.75664152    -0.23300
H1629       H  0.12561917  0.93964045  0.58400984     0.10200
H1630       H  0.11056656  0.91248845  0.63479250     0.13800
H1631       H  0.13789700  0.53333885  0.63596516     0.12500
H1632       H  0.12470110  0.53693698  0.69521471     0.13700
H1633       H  0.10723597  0.01027511  0.74756981     0.12700
H1634       H  0.11808740  0.88870413  0.68122313     0.09800
H1635       H  0.09980731  0.86422762  0.73298645     0.13100
H1636       H  0.08864720  0.96016747  0.77827456     0.15000
C1637       C  0.37296615  0.59342625  0.65539969    -0.00600
C1638       C  0.37599357  0.58144311  0.62281648    -0.08600
C1639       C  0.34739013  0.57221020  0.60510982    -0.17400
C1640       C  0.31516555  0.57533638  0.61984357     0.05000
C1641       C  0.31301637  0.58636542  0.65358823     0.19200
C1642       C  0.34188876  0.59481382  0.67097462    -0.18800
C1643       C  0.28205186  0.59031432  0.66943255    -0.20100
C1644       C  0.25270894  0.58360186  0.65239492    -0.18600
C1645       C  0.25388046  0.57235924  0.61934197     0.20600
C1646       C  0.28501022  0.56828923  0.60241262     0.02700
C1647       C  0.28452293  0.55700458  0.56896683    -0.13400
C1648       C  0.25446735  0.54839328  0.55369956    -0.11100
C1649       C  0.22402156  0.55112084  0.57106085     0.02200
C1650       C  0.22397181  0.56390719  0.60360728    -0.23300
H1651       H  0.40028000  0.58094961  0.61062731     0.10200
H1652       H  0.35127879  0.56382801  0.57978744     0.13800
H1653       H  0.34025924  0.60501594  0.69594738     0.12500
H1654       H  0.28052571  0.59877265  0.69510241     0.13700
H1655       H  0.22897093  0.58681510  0.66528901     0.12700
H1656       H  0.30688799  0.55373351  0.55417252     0.09800
H1657       H  0.25534331  0.53842849  0.52852703     0.13100
H1658       H  0.20061114  0.56614295  0.61739323     0.15000
C1659       C  0.17853042  0.96898645  0.90442078    -0.00600
C1660       C  0.20721059  0.97294969  0.92356397    -0.08600
C1661       C  0.23702371  0.98257592  0.90890139    -0.17400
C1662       C  0.23876220  0.98809970  0.87406143     0.05000
C1663       C  0.20859470  0.98717954  0.85510482     0.19200
C1664       C  0.17856694  0.97740988  0.87049534    -0.18800
C1665       C  0.20887148  0.49546251  0.82109077    -0.20100
C1666       C  0.23873239  0.50434946  0.80541314    -0.18600
C1667       C  0.26899005  0.50361199  0.82316836     0.18600
C1668       C  0.26943287  0.99459884  0.85757163     0.02700
C1669       C  0.30058176  0.99192582  0.87403315    -0.13400
C1670       C  0.33000008  0.50031761  0.85759437    -0.11100
C1671       C  0.32943082  0.51111522  0.82421057     0.02200
C1672       C  0.29884877  0.51220566  0.80697010    -0.23300
H1673       H  0.20657590  0.96692427  0.94975891     0.10200
H1674       H  0.25816175  0.98517969  0.92546657     0.13800
H1675       H  0.15577129  0.97459297  0.85600200     0.12500
H1676       H  0.18590018  0.49522444  0.80660474     0.13700
H1677       H  0.23827827  0.51118282  0.77913055     0.12700
H1678       H  0.30320440  0.98314545  0.89942419     0.09800
H1679       H  0.35318124  0.99906344  0.87176586     0.13100
H1680       H  0.29807962  0.52063981  0.78116374     0.15000
C1681       C  0.36072715  0.60509541  0.76667616    -0.00600
C1682       C  0.37990646  0.63429733  0.76462774    -0.08600
C1683       C  0.36512490  0.66464344  0.75636019    -0.17400
C1684       C  0.33017434  0.66693425  0.75137307     0.05000
C1685       C  0.31061784  0.63742681  0.75487174     0.19200
C1686       C  0.32603742  0.60688437  0.76161596    -0.18800
C1687       C  0.27568800  0.63857932  0.75231610    -0.20100
C1688       C  0.25966078  0.66844431  0.74530822    -0.18600
C1689       C  0.27833964  0.69754520  0.74020144     0.20600
C1690       C  0.31385334  0.69742641  0.74337854     0.02700
C1691       C  0.33142090  0.72767488  0.73755573    -0.13400
C1692       C  0.31439417  0.75621672  0.72712714    -0.11100
C1693       C  0.27984529  0.75505153  0.72216584     0.02200
C1694       C  0.26178921  0.72650444  0.73031135    -0.23300
H1695       H  0.40644803  0.63389315  0.77025597     0.10200
H1696       H  0.38162450  0.68593217  0.75518482     0.13800
H1697       H  0.31059985  0.58471448  0.76423106     0.12500
H1698       H  0.26068528  0.61619718  0.75558909     0.13700
H1699       H  0.23258032  0.66860604  0.74305405     0.12700
H1700       H  0.35828473  0.72978468  0.73939042     0.09800
H1701       H  0.32831440  0.77864679  0.72088406     0.13100
H1702       H  0.23496780  0.72644963  0.72671181     0.15000
C1703       C  0.46119429  0.65119975  0.00873292    -0.00600
C1704       C  0.45500077  0.61696605  0.01027260    -0.08600
C1705       C  0.44440427  0.60015148  0.98169681    -0.17400
C1706       C  0.44008236  0.61762004  0.95106891     0.05000
C1707       C  0.44425922  0.65291884  0.95097086     0.19200
C1708       C  0.45414636  0.66924194  0.97990737    -0.18800
C1709       C  0.44041126  0.67158441  0.92165212    -0.20100
C1710       C  0.43383373  0.65572931  0.89170394    -0.18600
C1711       C  0.43046600  0.62099337  0.89070921     0.20600
C1712       C  0.43285196  0.60142043  0.92037710     0.02700
C1713       C  0.42802680  0.56655781  0.91791559    -0.13400
C1714       C  0.42071206  0.55192826  0.88726538    -0.11100
C1715       C  0.41914469  0.57128046  0.85805955     0.02200
C1716       C  0.42414928  0.60583039  0.86007020    -0.23300
H1717       H  0.96023962  0.60312052  0.53274196     0.10200
H1718       H  0.44130033  0.57350000  0.98407020     0.13800
H1719       H  0.45895946  0.69579144  0.97960242     0.12500
H1720       H  0.44332159  0.69850124  0.92171508     0.13700
H1721       H  0.43156035  0.67070895  0.86914801     0.12700
H1722       H  0.42890338  0.54999411  0.93921100     0.09800
H1723       H  0.41537730  0.52540865  0.88663007     0.13100
H1724       H  0.42212688  0.62136147  0.83786474     0.15000
C1725       C  0.34156746  0.90024062  0.80506286    -0.00600
C1726       C  0.35218587  0.91965125  0.83179496    -0.08600
C1727       C  0.36246663  0.90478054  0.86115423    -0.17400
C1728       C  0.36251585  0.86973001  0.86400079     0.05000
C1729       C  0.35766658  0.85015167  0.83481172     0.19200
C1730       C  0.34661442  0.86564797  0.80531899    -0.18800
C1731       C  0.36266330  0.81551457  0.83602006    -0.20100
C1732       C  0.37164626  0.80013756  0.86607965    -0.18600
C1733       C  0.37309170  0.81881972  0.89572532     0.20600
C1734       C  0.36713840  0.85370025  0.89499260     0.02700
C1735       C  0.36454608  0.87124280  0.92538225    -0.13400
C1736       C  0.37093703  0.85539475  0.95539709    -0.11100
C1737       C  0.37980473  0.82150962  0.95614298     0.02200
C1738       C  0.38038616  0.80317258  0.92619591    -0.23300
H1739       H  0.35082713  0.94642293  0.83020901     0.10200
H1740       H  0.36992103  0.92115207  0.88127615     0.13800
H1741       H  0.33995451  0.85095015  0.78354451     0.12500
H1742       H  0.35979506  0.80039847  0.81371536     0.13700
H1743       H  0.37611726  0.77341125  0.86642121     0.12700
H1744       H  0.35707450  0.89715022  0.92671194     0.09800
H1745       H  0.36960219  0.87015939  0.97806858     0.13100
H1746       H  0.38717268  0.77693670  0.92645687     0.15000
C1747       C  0.47182143  0.76385667  0.99057861    -0.00600
C1748       C  0.00129004  0.76343107  0.00955308    -0.08600
C1749       C  0.03189116  0.75563188  0.99483353    -0.17400
C1750       C  0.03402887  0.74880145  0.96023176     0.05000
C1751       C  0.00404882  0.74968061  0.94102035     0.19200
C1752       C  0.47346099  0.75678550  0.95630101    -0.18800
C1753       C  0.50473500  0.74414682  0.90648908    -0.20100
C1754       C  0.03469458  0.73704087  0.89056169    -0.18600
C1755       C  0.06436848  0.73480954  0.90894460     0.20600
C1756       C  0.06473763  0.74107245  0.94397116     0.02700
C1757       C  0.09570669  0.73842205  0.96116987    -0.13400
C1758       C  0.12448652  0.72777848  0.94447281    -0.11100
C1759       C  0.12292294  0.71990159  0.91054203     0.02200
C1760       C  0.09350487  0.72477476  0.89270164    -0.23300
H1761       H  0.00090682  0.77008699  0.03581461     0.10200
H1762       H  0.05340046  0.75590263  0.01110597     0.13800
H1763       H  0.45103624  0.75791572  0.94101828     0.12500
H1764       H  0.48195597  0.74524185  0.89172704     0.13700
H1765       H  0.03457595  0.73267893  0.86380861     0.12700
H1766       H  0.09829526  0.74309729  0.98759215     0.09800
H1767       H  0.14753759  0.72393633  0.95828139     0.13100
H1768       H  0.09307712  0.71850240  0.86646364     0.15000
C1769       C  0.43874241  0.85665597  0.54606984    -0.00600
C1770       C  0.41987635  0.88614903  0.54730822    -0.08600
C1771       C  0.43508742  0.91653409  0.55474125    -0.17400
C1772       C  0.47001586  0.91837122  0.56028480     0.05000
C1773       C  0.98914051  0.88849683  0.55771117     0.19200
C1774       C  0.47342544  0.85816448  0.55113831    -0.18800
C1775       C  0.02394802  0.88890972  0.56159168    -0.20100
C1776       C  0.04022960  0.91830543  0.56953405    -0.18600
C1777       C  0.02196589  0.94777416  0.57376292     0.20600
C1778       C  0.98668525  0.94857133  0.56865879     0.02700
C1779       C  0.46966348  0.97932435  0.57335216    -0.13400
C1780       C  0.98684024  0.00735532  0.58489787    -0.11100
C1781       C  0.02104470  0.00521695  0.59171250     0.02200
C1782       C  0.03866149  0.97618637  0.58467232    -0.23300
H1783       H  0.39325791  0.88586707  0.54198067     0.10200
H1784       H  0.41890576  0.93809332  0.55545707     0.13800
H1785       H  0.98876205  0.83588186  0.04870203     0.12500
H1786       H  0.03862582  0.86623775  0.55897416     0.13700
H1787       H  0.06714338  0.91779576  0.57319547     0.12700
H1788       H  0.44306355  0.98219829  0.56965179     0.09800
H1789       H  0.47324616  0.03018882  0.59023491     0.13100
H1790       H  0.06517576  0.97542045  0.58979943     0.15000
C1791       C  0.07966331  0.80060454  0.74046318    -0.00600
C1792       C  0.04991736  0.80108523  0.75910103    -0.08600
C1793       C  0.01975476  0.80997083  0.74416370    -0.17400
C1794       C  0.01843852  0.81804769  0.70976009     0.05000
C1795       C  0.04898218  0.81906593  0.69140067     0.19200
C1796       C  0.07899715  0.81009558  0.70669495    -0.18800
C1797       C  0.04940651  0.82824668  0.65762688    -0.20100
C1798       C  0.01983321  0.83620210  0.64143340    -0.18600
C1799       C  0.48933476  0.83463277  0.65858527     0.20600
C1800       C  0.48797459  0.82502734  0.69285066     0.02700
C1801       C  0.45614805  0.82272247  0.70852442    -0.13400
C1802       C  0.42718966  0.83173885  0.69127908    -0.11100
C1803       C  0.42946429  0.84297892  0.65832966     0.02200
C1804       C  0.46013626  0.84352931  0.64184644    -0.23300
H1805       H  0.04968745  0.79352467  0.78516005     0.10200
H1806       H  0.49795306  0.80986653  0.76012789     0.13800
H1807       H  0.10184022  0.80997371  0.69191194     0.12500
H1808       H  0.07272899  0.82923157  0.64365233     0.13700
H1809       H  0.02076189  0.84329978  0.61528663     0.12700
H1810       H  0.45282876  0.81462550  0.73406264     0.09800
H1811       H  0.40321010  0.83165975  0.70406824     0.13100
H1812       H  0.46120872  0.85289849  0.61649049     0.15000
C1813       C  0.11129148  0.70711348  0.79819385    -0.00600
C1814       C  0.13013929  0.67766270  0.79976952    -0.08600
C1815       C  0.11499762  0.64740892  0.80764489    -0.17400
C1816       C  0.08012155  0.64560642  0.81339008     0.05000
C1817       C  0.06112471  0.67566064  0.81205239     0.19200
C1818       C  0.07674726  0.70588454  0.80443195    -0.18800
C1819       C  0.02658657  0.67543000  0.81808649    -0.20100
C1820       C  0.01054331  0.64594758  0.82657451    -0.18600
C1821       C  0.02864300  0.61609644  0.82836275     0.20600
C1822       C  0.06347379  0.61517181  0.82084975     0.02700
C1823       C  0.08011429  0.58385974  0.82171209    -0.13400
C1824       C  0.06329499  0.55527181  0.83241884    -0.11100
C1825       C  0.02979785  0.55739999  0.84202429     0.02200
C1826       C  0.01230970  0.58722801  0.83880793    -0.23300
H1827       H  0.15669071  0.67779913  0.79405045     0.10200
H1828       H  0.13129185  0.62595763  0.80880045     0.13800
H1829       H  0.06166096  0.72838729  0.80275189     0.12500
H1830       H  0.01197660  0.69825861  0.81672323     0.13700
H1831       H  0.98390874  0.64652254  0.83196502     0.12700
H1832       H  0.10611123  0.58073426  0.81506439     0.09800
H1833       H  0.07671208  0.53182811  0.83476698     0.13100
H1834       H  0.98636770  0.58806417  0.84636092     0.15000
C1835       C  0.16954798  0.73894220  0.70612588    -0.00600
C1836       C  0.17528545  0.70439141  0.70507935    -0.08600
C1837       C  0.18105696  0.68853289  0.67488329    -0.17400
C1838       C  0.18155529  0.70691273  0.64475079     0.05000
C1839       C  0.17856675  0.74215275  0.64601793     0.19200
C1840       C  0.17130442  0.75770489  0.67645457    -0.18800
C1841       C  0.18299925  0.76138377  0.61694139    -0.20100
C1842       C  0.19245746  0.74615087  0.58705336    -0.18600
C1843       C  0.19465994  0.71128534  0.58521477     0.20600
C1844       C  0.18653446  0.69136359  0.61356179     0.02700
C1845       C  0.18388804  0.65651983  0.60965679    -0.13400
C1846       C  0.19480217  0.64170413  0.58044443    -0.11100
C1847       C  0.20895631  0.66101259  0.55507508     0.02200
C1848       C  0.20618498  0.69583502  0.55595287    -0.23300
H1849       H  0.17423341  0.68916480  0.72752201     0.10200
H1850       H  0.18578658  0.66197087  0.67587840     0.13800
H1851       H  0.16643739  0.78433807  0.67691326     0.12500
H1852       H  0.18053640  0.78834545  0.61766483     0.13700
H1853       H  0.19785491  0.76158290  0.56534954     0.12700
H1854       H  0.17389736  0.64029093  0.62888314     0.09800
H1855       H  0.19376398  0.61493058  0.57809558     0.13100
H1856       H  0.21517999  0.71062702  0.53499326     0.15000
N1857       N  0.72857065  0.14455402  0.03004329    -0.02700
C1858       C  0.76284486  0.14307071  0.02940979    -0.00100
C1859       C  0.77243492  0.11781338  0.00772240    -0.23000
C1860       C  0.74329221  0.10296157  0.99586685    -0.23200
C1861       C  0.71658705  0.11952521  0.01052650    -0.00200
H1862       H  0.79783276  0.11032748  0.00177768     0.13500
H1863       H  0.74180854  0.08171824  0.47928586     0.13600
N1864       N  0.51423282  0.03064048  0.35935513    -0.02700
C1865       C  0.51314348  0.02800960  0.39339103    -0.00100
C1866       C  0.48898176  0.00469189  0.40204508    -0.23000
C1867       C  0.97448650  0.99371774  0.37240562    -0.23200
C1868       C  0.99004555  0.01068092  0.34638800    -0.00200
H1869       H  0.48222720  0.49671986  0.42707739     0.13500
H1870       H  0.95419416  0.47584840  0.37018570     0.13600
N1871       N  0.90230918  0.35972138  0.14293232    -0.02700
C1872       C  0.89900992  0.39361762  0.14200128    -0.00100
C1873       C  0.87489310  0.40182581  0.11847687    -0.23000
C1874       C  0.86398009  0.37197477  0.10436570    -0.23200
C1875       C  0.88170463  0.34629812  0.11960139    -0.00200
H1876       H  0.86626750  0.42667605  0.11204822     0.13500
H1877       H  0.84546010  0.36941532  0.08475120     0.13600
C1878       C  0.61027789  0.28555070  0.25443761     0.81000
N1879       N  0.63687072  0.28117592  0.23382704    -0.77300
C1880       C  0.65680799  0.25402412  0.23697841     0.83400
N1881       N  0.65319499  0.23418586  0.26420455    -0.77300
C1882       C  0.62638684  0.23775236  0.28464072     0.83500
N1883       N  0.60666390  0.26504432  0.28117277    -0.79000
O1884       O  0.66837684  0.36229065  0.40611432    -0.77800
C1885       C  0.67266514  0.25205002  0.36176778     0.83300
O1886       O  0.77452760  0.29737594  0.36492065    -0.78900
O1887       O  0.69890184  0.30937184  0.26167883    -0.80400
O1888       O  0.64414563  0.38306655  0.30475908    -0.80200
O1889       O  0.68102891  0.40515684  0.37219524    -0.78800
Zn1890     Zn  0.69464139  0.32170754  0.38365495     1.55700
O1891       O  0.62877947  0.32992937  0.31136131    -0.80200
Cd1892     Cd  0.69248683  0.38148405  0.32724487     1.59700
Cd1893     Cd  0.75176458  0.32411427  0.32420052     1.59600
O1894       O  0.73329972  0.40390628  0.30014165    -0.80200
O1895       O  0.70503864  0.33468955  0.33808309    -1.90700
Cd1896     Cd  0.67662705  0.30764778  0.30953676     1.59900
O1897       O  0.77579631  0.36899900  0.31127724    -0.80100
O1898       O  0.67778787  0.25984336  0.33112007    -0.78800
C1899       C  0.76633466  0.29596074  0.39614843     0.83800
C1900       C  0.66721951  0.39376212  0.39882201     0.83400
O1901       O  0.67113277  0.27476853  0.38439170    -0.77700
C1902       C  0.62119331  0.36065314  0.30656273     0.84200
O1903       O  0.73897993  0.30907740  0.40673257    -0.77800
C1904       C  0.76462068  0.39607025  0.29819862     0.84300
C1905       C  0.72942929  0.30334988  0.25378627     0.84700
O1906       O  0.75201818  0.30058077  0.27646936    -0.80300
N1907       N  0.53769909  0.03088257  0.10959505    -0.02700
C1908       C  0.53883725  0.03304859  0.14367337    -0.00100
C1909       C  0.56330286  0.05595060  0.15239699    -0.23000
C1910       C  0.57822336  0.06682721  0.12281388    -0.23200
C1911       C  0.56237239  0.05042713  0.09674956    -0.00200
H1912       H  0.56989026  0.06370693  0.17747412     0.13500
H1913       H  0.59880467  0.08434448  0.12069495     0.13600
N1914       N  0.64956898  0.20247492  0.39477186    -0.02700
C1915       C  0.65221946  0.16849238  0.39338490    -0.00100
C1916       C  0.67602047  0.16019197  0.36955108    -0.23000
C1917       C  0.68722461  0.19000067  0.35547704    -0.23200
C1918       C  0.66995709  0.21572966  0.37102822    -0.00200
H1919       H  0.68410125  0.13528282  0.36275599     0.13500
H1920       H  0.70542745  0.19249356  0.33548970     0.13600
N1921       N  0.82282925  0.41616451  0.27931831    -0.02700
C1922       C  0.78863447  0.41811514  0.27890189    -0.00100
C1923       C  0.77924346  0.44412761  0.25797028    -0.23000
C1924       C  0.80852658  0.45905199  0.24642965    -0.23200
C1925       C  0.83506382  0.44168169  0.26047151    -0.00200
H1926       H  0.75391142  0.45205404  0.25237791     0.13500
H1927       H  0.81016456  0.48086395  0.23041863     0.13600
C1928       C  0.92372369  0.32549717  0.03395869     0.81000
N1929       N  0.94369173  0.29829206  0.03138918    -0.77300
C1930       C  0.94069192  0.27747990  0.50497031     0.83400
N1931       N  0.91377496  0.28061996  0.48462230    -0.77300
C1932       C  0.89317176  0.30733349  0.48729466     0.83500
N1933       N  0.89661566  0.32798151  0.51386521    -0.79000
O1934       O  0.63276404  0.11255145  0.40818220    -0.77800
C1935       C  0.62843027  0.50172076  0.45239286     0.83300
O1936       O  0.52673182  0.04849705  0.44897005    -0.78900
O1937       O  0.60239748  0.05847355  0.05242895    -0.80400
O1938       O  0.65754972  0.13260570  0.00832764    -0.80200
O1939       O  0.61931718  0.15536782  0.44167987    -0.78800
Zn1940     Zn  0.60671449  0.07176222  0.43045432     1.55700
O1941       O  0.67254224  0.07926254  0.00267018    -0.80200
Cd1942     Cd  0.60892135  0.13140712  0.48677257     1.59700
Cd1943     Cd  0.54947666  0.07510190  0.98981444     1.59600
O1944       O  0.56912393  0.15409251  0.01493338    -0.80200
O1945       O  0.59626670  0.08467827  0.47601841    -1.90700
Cd1946     Cd  0.62459501  0.05714932  0.00450842     1.59900
O1947       O  0.52613316  0.12046707  0.00240617    -0.80100
O1948       O  0.62329701  0.50941508  0.48303008    -0.78800
C1949       C  0.53501661  0.04677682  0.41777376     0.83800
C1950       C  0.63340507  0.14405471  0.41522444     0.83400
O1951       O  0.63007064  0.02458431  0.42972728    -0.77700
C1952       C  0.68030637  0.10997159  0.00707811     0.84200
O1953       O  0.56251550  0.05953515  0.40702703    -0.77800
C1954       C  0.53765363  0.14691649  0.01632021     0.84300
C1955       C  0.57169896  0.05337895  0.06037818     0.84700
O1956       O  0.54890114  0.05173809  0.03778198    -0.80300
N1957       N  0.47956593  0.16737579  0.03456834    -0.02700
C1958       C  0.51371267  0.16897066  0.03566736    -0.00100
C1959       C  0.52284397  0.19435388  0.05735198    -0.23000
C1960       C  0.49333939  0.20906389  0.06875223    -0.23200
C1961       C  0.96694930  0.19236362  0.05368525    -0.00200
H1962       H  0.54810144  0.20197978  0.06360629     0.13500
H1963       H  0.49148554  0.23029120  0.08540808     0.13600
N1964       N  0.76325378  0.28101779  0.20446578    -0.02700
C1965       C  0.76265998  0.28410194  0.17045962    -0.00100
C1966       C  0.73871988  0.30769394  0.16192953    -0.23000
C1967       C  0.72366385  0.31815332  0.19154014    -0.23200
C1968       C  0.73884197  0.30075498  0.21743762    -0.00200
H1969       H  0.73262807  0.31625381  0.13694679     0.13500
H1970       H  0.70347083  0.33610439  0.19377481     0.13600
N1971       N  0.65097314  0.45212010  0.41915488    -0.02700
C1972       C  0.64821118  0.41813942  0.42055789    -0.00100
C1973       C  0.62447210  0.40985107  0.44448863    -0.23000
C1974       C  0.61363935  0.43962917  0.45880819    -0.23200
C1975       C  0.63085634  0.46536910  0.44309671    -0.00200
H1976       H  0.61619872  0.38495735  0.45118395     0.13500
H1977       H  0.59567665  0.44208766  0.47900413     0.13600
C1978       C  0.87558775  0.07420972  0.27976839     0.81000
N1979       N  0.90256891  0.07733010  0.29997410    -0.77300
C1980       C  0.90650597  0.05681105  0.32664814     0.83400
N1981       N  0.88678539  0.02947797  0.32926367    -0.77300
C1982       C  0.85962832  0.02595215  0.30934760     0.83500
N1983       N  0.85572133  0.04700409  0.28309272    -0.79000
O1984       O  0.88263781  0.19990428  0.15671375    -0.77800
C1985       C  0.87874863  0.30989045  0.11078296     0.83300
O1986       O  0.77629908  0.26361774  0.11486082    -0.78900
O1987       O  0.85190972  0.25157805  0.01158054    -0.80400
O1988       O  0.90780645  0.17889222  0.05535225    -0.80200
O1989       O  0.87058102  0.15672754  0.12314601    -0.78800
Zn1990     Zn  0.85667988  0.24028623  0.13357825     1.55700
O1991       O  0.92248566  0.23229847  0.06094062    -0.80200
Cd1992     Cd  0.85915390  0.17997306  0.07771070     1.59700
Cd1993     Cd  0.79936769  0.23671241  0.07457119     1.59600
O1994       O  0.81832384  0.15742164  0.05042988    -0.80200
O1995       O  0.84628092  0.22673883  0.08826221    -1.90700
Cd1996     Cd  0.87434563  0.25392678  0.05926703     1.59900
O1997       O  0.77559164  0.19164069  0.06242776    -0.80100
O1998       O  0.87313511  0.30191533  0.08031988    -0.78800
C1999       C  0.78464734  0.26549270  0.14596931     0.83800
C2000       C  0.88395700  0.16839286  0.14983295     0.83400
O2001       O  0.88039185  0.28727587  0.13362695    -0.77700
C2002       C  0.93048226  0.20164520  0.05657443     0.84200
O2003       O  0.81227543  0.25295086  0.15651824    -0.77800
C2004       C  0.78687187  0.16494186  0.04886195     0.84300
C2005       C  0.82127084  0.25716161  0.50380781     0.84700
O2006       O  0.79871715  0.25974395  0.02657458    -0.80300
N2007       N  0.90016701  0.11028124  0.17074711    -0.02700
C2008       C  0.90265156  0.14423511  0.17217341    -0.00100
C2009       C  0.92606494  0.15253688  0.19631640    -0.23000
C2010       C  0.93728813  0.12265250  0.21034878    -0.23200
C2011       C  0.92033766  0.09690430  0.19452731    -0.00200
H2012       H  0.93390432  0.17745287  0.20331075     0.13500
H2013       H  0.95526943  0.12013360  0.23047706     0.13600
N2014       N  0.57241044  0.39517570  0.28413642    -0.02700
C2015       C  0.53822528  0.39377124  0.28568665    -0.00100
C2016       C  0.52910231  0.36896106  0.30819105    -0.23000
C2017       C  0.55852540  0.35426544  0.31964006    -0.23200
C2018       C  0.58488856  0.37042861  0.30383381    -0.00200
H2019       H  0.00384430  0.36166966  0.31494704     0.13500
H2020       H  0.56034107  0.33333852  0.33678151     0.13600
N2021       N  0.78711318  0.27950068  0.45477403    -0.02700
C2022       C  0.78815199  0.27712401  0.42068315    -0.00100
C2023       C  0.81270608  0.25423066  0.41193416    -0.23000
C2024       C  0.82761885  0.24336846  0.44144766    -0.23200
C2025       C  0.81175999  0.25982402  0.46750119    -0.00200
H2026       H  0.81953374  0.24664907  0.38683805     0.13500
H2027       H  0.84832195  0.22597892  0.44351564     0.13600
C2028       C  0.67750908  0.48740824  0.02819276     0.81000
N2029       N  0.65082402  0.48365936  0.04873186    -0.77300
C2030       C  0.64707607  0.50353973  0.07581969     0.83400
N2031       N  0.66741069  0.03043549  0.07918979    -0.77300
C2032       C  0.69352345  0.03532387  0.05800352     0.83500
N2033       N  0.69676005  0.51504708  0.03116906    -0.79000
O2034       O  0.52408402  0.01246216  0.19930635    -0.77800
C2035       C  0.98030366  0.00807867  0.31011112     0.83300
O2036       O  0.98281170  0.40693692  0.26399946    -0.78900
O2037       O  0.87937996  0.48183828  0.25361042    -0.80400
O2038       O  0.92146673  0.03816961  0.18024073    -0.80200
O2039       O  0.98943395  0.00162236  0.15658330    -0.78800
Zn2040     Zn  0.00152326  0.48668354  0.24004715     1.55700
O2041       O  0.92834210  0.05205559  0.23377470    -0.80200
Cd2042     Cd  0.94440493  0.98994963  0.18050209     1.59700
Cd2043     Cd  0.94267365  0.42954176  0.23619247     1.59600
O2044       O  0.91749549  0.44947778  0.15749331    -0.80200
O2045       O  0.95587510  0.47652388  0.22703346    -1.90700
Cd2046     Cd  0.92729651  0.00395630  0.25520942     1.59900
O2047       O  0.93199433  0.40642525  0.19043278    -0.80100
O2048       O  0.94962794  0.00235107  0.30279205    -0.78800
C2049       C  0.01396464  0.41529193  0.26612056     0.83800
C2050       C  0.51657157  0.01435870  0.16790129     0.83400
O2051       O  0.00256435  0.01025486  0.28693392    -0.77700
C2052       C  0.92315576  0.06043272  0.20327916     0.84200
O2053       O  0.02467762  0.44257999  0.25306780    -0.77800
C2054       C  0.91749899  0.41791741  0.16418342     0.84300
C2055       C  0.87142983  0.45106226  0.25734669     0.84700
O2056       O  0.89402725  0.42822093  0.25796555    -0.80300
C2057       C  0.77153449  0.30596427  0.47274474    -0.00600
C2058       C  0.79137046  0.33227895  0.48370437    -0.08600
C2059       C  0.77689077  0.36176851  0.49429451    -0.17400
C2060       C  0.74172943  0.36520802  0.49456715     0.05000
C2061       C  0.72168453  0.33652336  0.48826989     0.19200
C2062       C  0.73682385  0.30699093  0.47712207    -0.18800
C2063       C  0.68687016  0.33800095  0.49226969    -0.20100
C2064       C  0.67158897  0.36777301  0.50175084    -0.18600
C2065       C  0.69063878  0.39696907  0.50528900     0.20600
C2066       C  0.72592884  0.39611547  0.50099942     0.02700
C2067       C  0.74407089  0.42649928  0.00241451    -0.13400
C2068       C  0.72794606  0.45623454  0.00971766    -0.11100
C2069       C  0.69325729  0.45688852  0.01535293     0.02200
C2070       C  0.67478596  0.42718754  0.01308744    -0.23300
H2071       H  0.81819968  0.33013280  0.48295924     0.10200
H2072       H  0.79377321  0.38131111  0.50208683     0.13800
H2073       H  0.72175213  0.28557242  0.47008878     0.12500
H2074       H  0.67146876  0.31606602  0.48816532     0.13700
H2075       H  0.64464383  0.36821924  0.50530482     0.12700
H2076       H  0.77059765  0.42812864  0.99739839     0.09800
H2077       H  0.74297004  0.47871722  0.01123698     0.13100
H2078       H  0.64804180  0.42738428  0.01796181     0.15000
C2079       C  0.63280702  0.48867536  0.10630832    -0.00600
C2080       C  0.62491739  0.45453956  0.10681698    -0.08600
C2081       C  0.61713246  0.43863432  0.13662582    -0.17400
C2082       C  0.61739359  0.45640594  0.16704874     0.05000
C2083       C  0.62295348  0.49138106  0.16630579     0.19200
C2084       C  0.63146820  0.50703224  0.13614361    -0.18800
C2085       C  0.62015628  0.51028187  0.19568277    -0.20100
C2086       C  0.61050940  0.49511148  0.22557901    -0.18600
C2087       C  0.60598670  0.46046477  0.22703508     0.20600
C2088       C  0.61144827  0.44058196  0.19808130     0.02700
C2089       C  0.61115093  0.40553008  0.20139707    -0.13400
C2090       C  0.60118812  0.39102790  0.23117157    -0.11100
C2091       C  0.59073154  0.41071176  0.25779334     0.02200
C2092       C  0.59520394  0.44530819  0.25680195    -0.23300
H2093       H  0.62551762  0.43965530  0.08420317     0.10200
H2094       H  0.61059934  0.41250987  0.13504519     0.13800
H2095       H  0.63783773  0.03336526  0.13606843     0.12500
H2096       H  0.62448188  0.03700268  0.19529943     0.13700
H2097       H  0.60697804  0.51041314  0.24767620     0.12700
H2098       H  0.61847168  0.38881570  0.18150982     0.09800
H2099       H  0.60020582  0.36431681  0.23328342     0.13100
H2100       H  0.58846404  0.46027376  0.27839839     0.15000
C2101       C  0.87311327  0.09330286  0.15529312    -0.00600
C2102       C  0.87605584  0.08160387  0.12259945    -0.08600
C2103       C  0.84742146  0.07234855  0.10495894    -0.17400
C2104       C  0.81525216  0.07517220  0.11987737     0.05000
C2105       C  0.81320617  0.08588443  0.15372955     0.19200
C2106       C  0.84211602  0.09433514  0.17104775    -0.18800
C2107       C  0.78229669  0.08956067  0.16974978    -0.20100
C2108       C  0.75290255  0.08295761  0.15275356    -0.18600
C2109       C  0.75397213  0.07204590  0.11958433     0.20600
C2110       C  0.78505172  0.06816614  0.10251483     0.02700
C2111       C  0.78447654  0.05710693  0.06899761    -0.13400
C2112       C  0.75439154  0.04855047  0.05377042    -0.11100
C2113       C  0.72399257  0.05114703  0.07122839     0.02200
C2114       C  0.72401847  0.06372153  0.10386095    -0.23300
H2115       H  0.90028264  0.08136878  0.11028339     0.10200
H2116       H  0.85123519  0.06423075  0.07953927     0.13800
H2117       H  0.84055707  0.10429694  0.19611607     0.12500
H2118       H  0.78085194  0.09776081  0.19551065     0.13700
H2119       H  0.72920645  0.08599306  0.16576836     0.12700
H2120       H  0.80679846  0.05393956  0.05411621     0.09800
H2121       H  0.75521068  0.03872210  0.02854234     0.13100
H2122       H  0.70069340  0.06585145  0.11772367     0.15000
C2123       C  0.67855983  0.46913630  0.40446876    -0.00600
C2124       C  0.70728020  0.47304724  0.42355943    -0.08600
C2125       C  0.73703407  0.48281517  0.40887874    -0.17400
C2126       C  0.73867648  0.48850365  0.37406243     0.05000
C2127       C  0.70845521  0.48768172  0.35518558     0.19200
C2128       C  0.67848046  0.47778090  0.37060046    -0.18800
C2129       C  0.70875712  0.99565060  0.32098987    -0.20100
C2130       C  0.73862009  0.00458994  0.30534286    -0.18600
C2131       C  0.76884785  0.00397868  0.32315442     0.18600
C2132       C  0.76931196  0.49499287  0.35750764     0.02700
C2133       C  0.80049852  0.49219563  0.37387652    -0.13400
C2134       C  0.82980849  0.00084104  0.35768676    -0.11100
C2135       C  0.82930123  0.01137733  0.32421819     0.02200
C2136       C  0.79873857  0.01242495  0.30693919    -0.23300
H2137       H  0.70672037  0.46687165  0.44971463     0.10200
H2138       H  0.75820963  0.48535996  0.42540675     0.13800
H2139       H  0.65564400  0.47503365  0.35615788     0.12500
H2140       H  0.68582188  0.99524989  0.30645124     0.13700
H2141       H  0.73820290  0.01129827  0.27902764     0.12700
H2142       H  0.80317099  0.48339228  0.39925410     0.09800
H2143       H  0.85311503  0.49911365  0.37146060     0.13100
H2144       H  0.79801800  0.02067021  0.28107094     0.15000
C2145       C  0.86066285  0.10503353  0.26652084    -0.00600
C2146       C  0.87984086  0.13422882  0.26445064    -0.08600
C2147       C  0.86505260  0.16457389  0.25623189    -0.17400
C2148       C  0.83009524  0.16687229  0.25131544     0.05000
C2149       C  0.81053325  0.13737082  0.25482973     0.19200
C2150       C  0.82595889  0.10682481  0.26153988    -0.18800
C2151       C  0.77559796  0.13853937  0.25233395    -0.20100
C2152       C  0.75957283  0.16842035  0.24537915    -0.18600
C2153       C  0.77826273  0.19751149  0.24024706     0.20600
C2154       C  0.81377992  0.19737166  0.24337134     0.02700
C2155       C  0.83136406  0.22760740  0.23753791    -0.13400
C2156       C  0.81435168  0.25615197  0.22712037    -0.11100
C2157       C  0.77980506  0.25500021  0.22217613     0.02200
C2158       C  0.76172414  0.22647790  0.23036200    -0.23300
H2159       H  0.90638884  0.13382473  0.27004468     0.10200
H2160       H  0.88156065  0.18585383  0.25504501     0.13800
H2161       H  0.81052379  0.08465651  0.26418141     0.12500
H2162       H  0.76059054  0.11616249  0.25562156     0.13700
H2163       H  0.73248833  0.16860113  0.24317360     0.12700
H2164       H  0.85822889  0.22970927  0.23934518     0.09800
H2165       H  0.82828213  0.27857110  0.22085901     0.13100
H2166       H  0.73489965  0.22644014  0.22678379     0.15000
C2167       C  0.96128073  0.15124585  0.50855647    -0.00600
C2168       C  0.95482428  0.11706321  0.51012636    -0.08600
C2169       C  0.94430671  0.10026205  0.48151363    -0.17400
C2170       C  0.94033526  0.11768730  0.45081194     0.05000
C2171       C  0.94479984  0.15294852  0.45065500     0.19200
C2172       C  0.95463257  0.16926177  0.47961942    -0.18800
C2173       C  0.94123276  0.17157624  0.42127569    -0.20100
C2174       C  0.93458003  0.15571691  0.39134316    -0.18600
C2175       C  0.93090385  0.12100927  0.39041307     0.20600
C2176       C  0.93311271  0.10147685  0.42012327     0.02700
C2177       C  0.92810135  0.06663886  0.41771525    -0.13400
C2178       C  0.92070065  0.05200149  0.38709477    -0.11100
C2179       C  0.91921029  0.07131261  0.35786072     0.02200
C2180       C  0.92443633  0.10583636  0.35980437    -0.23300
H2181       H  0.46023353  0.10313060  0.03311655     0.10200
H2182       H  0.94093771  0.07364869  0.48394352     0.13800
H2183       H  0.95968899  0.19576214  0.47928149     0.12500
H2184       H  0.94434913  0.19846783  0.42129689     0.13700
H2185       H  0.93246880  0.17067100  0.36875475     0.12700
H2186       H  0.92891567  0.05009557  0.43902715     0.09800
H2187       H  0.91523730  0.02550638  0.38650884     0.13100
H2188       H  0.92249971  0.12133496  0.33756860     0.15000
C2189       C  0.84158948  0.40028839  0.30506513    -0.00600
C2190       C  0.85209001  0.41973495  0.33181792    -0.08600
C2191       C  0.86233952  0.40490200  0.36121019    -0.17400
C2192       C  0.86249342  0.36985101  0.36406287     0.05000
C2193       C  0.85775373  0.35025657  0.33486373     0.19200
C2194       C  0.84671975  0.36571329  0.30534548    -0.18800
C2195       C  0.86283683  0.31563468  0.33607850    -0.20100
C2196       C  0.87178743  0.30027700  0.36615278    -0.18600
C2197       C  0.87314051  0.31896078  0.39579929     0.20600
C2198       C  0.86712219  0.35383166  0.39506317     0.02700
C2199       C  0.86449145  0.37136835  0.42545520    -0.13400
C2200       C  0.87090302  0.35552676  0.45547214    -0.11100
C2201       C  0.87979802  0.32164762  0.45621860     0.02200
C2202       C  0.88041671  0.30331720  0.42627218    -0.23300
H2203       H  0.85065441  0.44649974  0.33021650     0.10200
H2204       H  0.86969129  0.42130300  0.38134448     0.13800
H2205       H  0.84013828  0.35099213  0.28356337     0.12500
H2206       H  0.86005374  0.30051308  0.31376682     0.13700
H2207       H  0.87631515  0.27356011  0.36650055     0.12700
H2208       H  0.85698398  0.39726426  0.42678689     0.09800
H2209       H  0.86953976  0.37028421  0.47814662     0.13100
H2210       H  0.88722774  0.27708784  0.42653354     0.15000
C2211       C  0.97178202  0.26396485  0.49063893    -0.00600
C2212       C  0.50124536  0.26345584  0.50961992    -0.08600
C2213       C  0.53183997  0.25564119  0.49488664    -0.17400
C2214       C  0.53397094  0.24885513  0.46027221     0.05000
C2215       C  0.50398667  0.24976159  0.44106976     0.19200
C2216       C  0.97341399  0.25693019  0.45635266    -0.18800
C2217       C  0.00464579  0.24414715  0.40655029    -0.20100
C2218       C  0.53457287  0.23689342  0.39063009    -0.18600
C2219       C  0.56426158  0.23470554  0.40899363     0.20600
C2220       C  0.56467003  0.24110877  0.44399569     0.02700
C2221       C  0.59567310  0.23859946  0.46115272    -0.13400
C2222       C  0.62444810  0.22794293  0.44445430    -0.11100
C2223       C  0.62284668  0.21990853  0.41056272     0.02200
C2224       C  0.59338271  0.22461504  0.39275427    -0.23300
H2225       H  0.50086055  0.27004968  0.53589808     0.10200
H2226       H  0.55334317  0.25581737  0.51116823     0.13800
H2227       H  0.95098851  0.25808705  0.44107287     0.12500
H2228       H  0.98186308  0.24525597  0.39179567     0.13700
H2229       H  0.53442101  0.23241682  0.36389412     0.12700
H2230       H  0.59830485  0.24344626  0.48753896     0.09800
H2231       H  0.64753739  0.22423647  0.45823589     0.13100
H2232       H  0.59291998  0.21820982  0.36654935     0.15000
C2233       C  0.93882521  0.35678154  0.04580591    -0.00600
C2234       C  0.91991524  0.38624661  0.04704650    -0.08600
C2235       C  0.93510845  0.41667591  0.05433687    -0.17400
C2236       C  0.97005496  0.41857950  0.05974667     0.05000
C2237       C  0.48923324  0.38875082  0.05705631     0.19200
C2238       C  0.97353974  0.35837346  0.05064031    -0.18800
C2239       C  0.52406616  0.38924970  0.06070290    -0.20100
C2240       C  0.54032531  0.41868512  0.06855567    -0.18600
C2241       C  0.52199958  0.44807814  0.07304282     0.20600
C2242       C  0.48668386  0.44878994  0.06815903     0.02700
C2243       C  0.96958055  0.47944124  0.07319773    -0.13400
C2244       C  0.48671701  0.50742414  0.08491395    -0.11100
C2245       C  0.52096418  0.50534378  0.09154143     0.02200
C2246       C  0.53866284  0.47646322  0.08407747    -0.23300
H2247       H  0.89327085  0.38590156  0.04185287     0.10200
H2248       H  0.91889922  0.43821474  0.05505696     0.13800
H2249       H  0.48864139  0.33588678  0.54925289     0.12500
H2250       H  0.53877919  0.36661080  0.05799632     0.13700
H2251       H  0.56726499  0.41824339  0.07204048     0.12700
H2252       H  0.94294476  0.48224181  0.06969879     0.09800
H2253       H  0.97306800  0.53015799  0.09053028     0.13100
H2254       H  0.56522699  0.47575434  0.08900308     0.15000
C2255       C  0.57986968  0.30074538  0.24041061    -0.00600
C2256       C  0.55009118  0.30121502  0.25899194    -0.08600
C2257       C  0.51997123  0.31016325  0.24401539    -0.17400
C2258       C  0.51873029  0.31831025  0.20962485     0.05000
C2259       C  0.54931323  0.31941042  0.19134086     0.19200
C2260       C  0.57929090  0.31037281  0.20667484    -0.18800
C2261       C  0.54980716  0.32872617  0.15760059    -0.20100
C2262       C  0.52025817  0.33670086  0.14135810    -0.18600
C2263       C  0.98971215  0.33496529  0.15841868     0.20600
C2264       C  0.98829634  0.32525390  0.19265510     0.02700
C2265       C  0.95644241  0.32277014  0.20823940    -0.13400
C2266       C  0.92749242  0.33168721  0.19094322    -0.11100
C2267       C  0.92979456  0.34301979  0.15803076     0.02200
C2268       C  0.96051344  0.34377842  0.14162427    -0.23300
H2269       H  0.54979722  0.29358206  0.28502957     0.10200
H2270       H  0.99814039  0.31004375  0.25993908     0.13800
H2271       H  0.60216882  0.31029114  0.19194553     0.12500
H2272       H  0.57316468  0.32979897  0.14369149     0.13700
H2273       H  0.52124319  0.34392998  0.11524048     0.12700
H2274       H  0.95308632  0.31458365  0.23374421     0.09800
H2275       H  0.90348259  0.33146951  0.20367423     0.13100
H2276       H  0.96161441  0.35322758  0.11629032     0.15000
C2277       C  0.61133899  0.20716967  0.29829942    -0.00600
C2278       C  0.63024505  0.17777181  0.30009909    -0.08600
C2279       C  0.61514014  0.14751835  0.30803790    -0.17400
C2280       C  0.58023461  0.14564782  0.31356877     0.05000
C2281       C  0.56117132  0.17565181  0.31200135     0.19200
C2282       C  0.57676878  0.20589228  0.30437990    -0.18800
C2283       C  0.52658671  0.17534490  0.31775257    -0.20100
C2284       C  0.51053765  0.14582384  0.32609535    -0.18600
C2285       C  0.52869662  0.11602014  0.32809545     0.20600
C2286       C  0.56360867  0.11518477  0.32096724     0.02700
C2287       C  0.58033779  0.08392636  0.32211097    -0.13400
C2288       C  0.56348802  0.05531252  0.33270069    -0.11100
C2289       C  0.52987598  0.05735613  0.34191561     0.02200
C2290       C  0.51232950  0.08711448  0.33838668    -0.23300
H2291       H  0.65681660  0.17794330  0.29447890     0.10200
H2292       H  0.63148079  0.12611264  0.30934989     0.13800
H2293       H  0.56164034  0.22835305  0.30251682     0.12500
H2294       H  0.51193343  0.19813718  0.31623499     0.13700
H2295       H  0.48384967  0.14633321  0.33120892     0.12700
H2296       H  0.60642612  0.08086515  0.31580674     0.09800
H2297       H  0.57696322  0.03192814  0.33530264     0.13100
H2298       H  0.48630025  0.08787875  0.34561304     0.15000
C2299       C  0.66956689  0.23880883  0.20610321    -0.00600
C2300       C  0.67517795  0.20423893  0.20504302    -0.08600
C2301       C  0.68094744  0.18838184  0.17484486    -0.17400
C2302       C  0.68158806  0.20678347  0.14472605     0.05000
C2303       C  0.67869807  0.24203163  0.14601440     0.19200
C2304       C  0.67142447  0.25758306  0.17644710    -0.18800
C2305       C  0.68325236  0.26127547  0.11696615    -0.20100
C2306       C  0.69274256  0.24604548  0.08708953    -0.18600
C2307       C  0.69485897  0.21117693  0.08522581     0.20600
C2308       C  0.68662453  0.19124736  0.11353734     0.02700
C2309       C  0.68395427  0.15640759  0.10960375    -0.13400
C2310       C  0.69494653  0.14159400  0.08041957    -0.11100
C2311       C  0.70914449  0.16090798  0.05507720     0.02200
C2312       C  0.70640141  0.19573112  0.05597103    -0.23300
H2313       H  0.67403107  0.18900158  0.22747449     0.10200
H2314       H  0.68557667  0.16180324  0.17583611     0.13800
H2315       H  0.66663779  0.28422979  0.17691587     0.12500
H2316       H  0.68085391  0.28824189  0.11770444     0.13700
H2317       H  0.69823459  0.26148371  0.06541347     0.12700
H2318       H  0.67389989  0.14017397  0.12879148     0.09800
H2319       H  0.69392327  0.11481645  0.07807599     0.13100
H2320       H  0.71544062  0.21052606  0.03503196     0.15000
N2321       N  0.72850817  0.14457673  0.53010773    -0.02700
C2322       C  0.76278372  0.14308039  0.52948682    -0.00100
C2323       C  0.77237453  0.11781069  0.50781496    -0.23000
C2324       C  0.74323388  0.10296262  0.49595517    -0.23200
C2325       C  0.71652683  0.11954438  0.51059081    -0.00200
H2326       H  0.79777240  0.11031594  0.50188144     0.13500
H2327       H  0.74186540  0.08172472  0.97918822     0.13600
N2328       N  0.51422816  0.03067129  0.85944489    -0.02700
C2329       C  0.51315638  0.02802289  0.89347561    -0.00100
C2330       C  0.48903615  0.00466252  0.90212912    -0.23000
C2331       C  0.97454765  0.99368045  0.87248681    -0.23200
C2332       C  0.99007292  0.01068188  0.84647280    -0.00200
H2333       H  0.48228011  0.49669015  0.92715776     0.13500
H2334       H  0.95425673  0.47580511  0.87026115     0.13600
N2335       N  0.90218801  0.35972112  0.64313136    -0.02700
C2336       C  0.89896864  0.39362935  0.64215614    -0.00100
C2337       C  0.87494451  0.40186865  0.61854723    -0.23000
C2338       C  0.86402895  0.37203415  0.60440707    -0.23200
C2339       C  0.88165762  0.34633265  0.61970938    -0.00200
H2340       H  0.86640420  0.42673312  0.61205973     0.13500
H2341       H  0.84558772  0.36950295  0.58471499     0.13600
C2342       C  0.61022932  0.28553251  0.75455341     0.81000
N2343       N  0.63682278  0.28117964  0.73393657    -0.77300
C2344       C  0.65678048  0.25404168  0.73708251     0.83400
N2345       N  0.65319933  0.23421288  0.76431857    -0.77300
C2346       C  0.62640138  0.23777034  0.78477036     0.83500
N2347       N  0.60666937  0.26505762  0.78131710    -0.79000
O2348       O  0.66836213  0.36224000  0.90614737    -0.77800
C2349       C  0.67273923  0.25204426  0.86182734     0.83300
O2350       O  0.77454249  0.29739492  0.86492482    -0.78900
O2351       O  0.69892219  0.30934218  0.76171713    -0.80400
O2352       O  0.64418444  0.38307191  0.80463732    -0.80200
O2353       O  0.68091299  0.40509021  0.87216958    -0.78800
Zn2354     Zn  0.69468740  0.32171954  0.88368253     1.55700
O2355       O  0.62879075  0.32996334  0.81138145    -0.80200
Cd2356     Cd  0.69248116  0.38148058  0.82721537     1.59700
Cd2357     Cd  0.75177890  0.32414528  0.82422515     1.59600
O2358       O  0.73331950  0.40392003  0.80014937    -0.80200
O2359       O  0.70504738  0.33470126  0.83809646    -1.90700
Cd2360     Cd  0.67663426  0.30764985  0.80957090     1.59900
O2361       O  0.77581245  0.36903094  0.81133814    -0.80100
O2362       O  0.67780348  0.25984926  0.83117313    -0.78800
C2363       C  0.76637536  0.29602106  0.89615918     0.83800
C2364       C  0.66714760  0.39369870  0.89882183     0.83400
O2365       O  0.67125489  0.27475283  0.88446228    -0.77700
C2366       C  0.62121847  0.36067984  0.80650602     0.84200
O2367       O  0.73904552  0.30917791  0.90675407    -0.77800
C2368       C  0.76464349  0.39608720  0.79822888     0.84300
C2369       C  0.72945436  0.30334429  0.75382006     0.84700
O2370       O  0.75205550  0.30062210  0.77649475    -0.80300
N2371       N  0.53770918  0.03094092  0.60966436    -0.02700
C2372       C  0.53888641  0.03312292  0.64373806    -0.00100
C2373       C  0.56337580  0.05601496  0.65242353    -0.23000
C2374       C  0.57826524  0.06687020  0.62281361    -0.23200
C2375       C  0.56237441  0.05046595  0.59677233    -0.00200
H2376       H  0.57000374  0.06377356  0.67748956     0.13500
H2377       H  0.59885729  0.08437122  0.62066224     0.13600
N2378       N  0.64968388  0.20247577  0.89486789    -0.02700
C2379       C  0.65226073  0.16848735  0.89341962    -0.00100
C2380       C  0.67597717  0.16017561  0.86950612    -0.23000
C2381       C  0.68719714  0.18998128  0.85544051    -0.23200
C2382       C  0.67002540  0.21572083  0.87107741    -0.00200
H2383       H  0.68397855  0.13526024  0.86264134     0.13500
H2384       H  0.70533549  0.19246631  0.83539392     0.13600
N2385       N  0.82286481  0.41617188  0.77934695    -0.02700
C2386       C  0.78866756  0.41811134  0.77891902    -0.00100
C2387       C  0.77927839  0.44409847  0.75795448    -0.23000
C2388       C  0.80855913  0.45903869  0.74643003    -0.23200
C2389       C  0.83509567  0.44169857  0.76050731    -0.00200
H2390       H  0.75394589  0.45199896  0.75232939     0.13500
H2391       H  0.81019464  0.48084260  0.73040763     0.13600
C2392       C  0.92368187  0.32553281  0.53401515     0.81000
N2393       N  0.94365449  0.29833492  0.53138664    -0.77300
C2394       C  0.94076211  0.27741450  0.00498602     0.83400
N2395       N  0.91386921  0.28053694  0.98459793    -0.77300
C2396       C  0.89325368  0.30724434  0.98723313     0.83500
N2397       N  0.89665832  0.32790202  0.01380299    -0.79000
O2398       O  0.63280077  0.11254096  0.90820990    -0.77800
C2399       C  0.62845939  0.50168436  0.95240435     0.83300
O2400       O  0.52673756  0.04856831  0.94902838    -0.78900
O2401       O  0.60237170  0.05849458  0.55242052    -0.80400
O2402       O  0.65748285  0.13261982  0.50836328    -0.80200
O2403       O  0.61933463  0.15535752  0.94169850    -0.78800
Zn2404     Zn  0.60675894  0.07174259  0.93048788     1.55700
O2405       O  0.67249362  0.07928643  0.50267618    -0.80200
Cd2406     Cd  0.60896828  0.13141039  0.98679966     1.59700
Cd2407     Cd  0.54944290  0.07503248  0.48978620     1.59600
O2408       O  0.56903429  0.15404734  0.51485702    -0.80200
O2409       O  0.59631061  0.08467834  0.97604857    -1.90700
Cd2410     Cd  0.62455310  0.05717100  0.50449201     1.59900
O2411       O  0.52606311  0.12038446  0.50233961    -0.80100
O2412       O  0.62333339  0.50938150  0.98304262    -0.78800
C2413       C  0.53503385  0.04679906  0.91784001     0.83800
C2414       C  0.63343531  0.14404604  0.91525008     0.83400
O2415       O  0.63011294  0.02454856  0.92975239    -0.77700
C2416       C  0.68024751  0.10999292  0.50711580     0.84200
O2417       O  0.56254989  0.05951362  0.90708244    -0.77800
C2418       C  0.53756840  0.14685194  0.51623239     0.84300
C2419       C  0.57168109  0.05337805  0.56038539     0.84700
O2420       O  0.54888054  0.05169692  0.53779141    -0.80300
N2421       N  0.47947405  0.16738516  0.53435515    -0.02700
C2422       C  0.51361912  0.16891351  0.53554583    -0.00100
C2423       C  0.52275013  0.19422800  0.55730827    -0.23000
C2424       C  0.49325053  0.20896632  0.56867305    -0.23200
C2425       C  0.96686352  0.19235367  0.55350396    -0.00200
H2426       H  0.54800769  0.20177875  0.56365236     0.13500
H2427       H  0.49139900  0.23014516  0.58539084     0.13600
N2428       N  0.76327817  0.28101465  0.70449012    -0.02700
C2429       C  0.76265791  0.28410063  0.67048443    -0.00100
C2430       C  0.73869543  0.30767279  0.66196469    -0.23000
C2431       C  0.72365042  0.31812291  0.69158149    -0.23200
C2432       C  0.73885673  0.30073817  0.71747158    -0.00200
H2433       H  0.73258095  0.31622409  0.63698450     0.13500
H2434       H  0.70344564  0.33605963  0.69382627     0.13600
N2435       N  0.65095845  0.45205225  0.91916734    -0.02700
C2436       C  0.64814213  0.41807796  0.92055579    -0.00100
C2437       C  0.62438247  0.40981359  0.94447410    -0.23000
C2438       C  0.61358788  0.43960513  0.95879822    -0.23200
C2439       C  0.63085214  0.46532780  0.94310450    -0.00200
H2440       H  0.61607164  0.38492907  0.95115847     0.13500
H2441       H  0.59561653  0.44208298  0.97898432     0.13600
C2442       C  0.87565671  0.07424173  0.78003851     0.81000
N2443       N  0.90263451  0.07735235  0.80024930    -0.77300
C2444       C  0.90656815  0.05681623  0.82691395     0.83400
N2445       N  0.88687058  0.02946425  0.82949791    -0.77300
C2446       C  0.85973556  0.02592199  0.80955626     0.83500
N2447       N  0.85578771  0.04703395  0.78335298    -0.79000
O2448       O  0.88262824  0.19996710  0.65675043    -0.77800
C2449       C  0.87871031  0.30992900  0.61085230     0.83300
O2450       O  0.77629501  0.26364707  0.61487560    -0.78900
O2451       O  0.85189239  0.25160530  0.51159182    -0.80400
O2452       O  0.90771043  0.17894527  0.55510673    -0.80200
O2453       O  0.87077558  0.15680795  0.62308214    -0.78800
Zn2454     Zn  0.85666781  0.24031445  0.63359072     1.55700
O2455       O  0.92245058  0.23230980  0.56091162    -0.80200
Cd2456     Cd  0.85915612  0.18001271  0.57766263     1.59700
Cd2457     Cd  0.79935355  0.23673569  0.57458560     1.59600
O2458       O  0.81826953  0.15743277  0.55048537    -0.80200
O2459       O  0.84627464  0.22676758  0.58826446    -1.90700
Cd2460     Cd  0.87432724  0.25397792  0.55928156     1.59900
O2461       O  0.77555063  0.19167315  0.56246610    -0.80100
O2462       O  0.87311265  0.30196821  0.58037937    -0.78800
C2463       C  0.78464280  0.26550748  0.64598500     0.83800
C2464       C  0.88403806  0.16847058  0.64982962     0.83400
O2465       O  0.88035740  0.28730045  0.63367919    -0.77700
C2466       C  0.93041096  0.20166591  0.55641024     0.84200
O2467       O  0.81226846  0.25296054  0.65653077    -0.77800
C2468       C  0.78681865  0.16495922  0.54892167     0.84300
C2469       C  0.82129259  0.25717401  0.00380625     0.84700
O2470       O  0.79869167  0.25972871  0.52657279    -0.80300
N2471       N  0.90016414  0.11036922  0.67080850    -0.02700
C2472       C  0.90268518  0.14431984  0.67221500    -0.00100
C2473       C  0.92606304  0.15261759  0.69639342    -0.23000
C2474       C  0.93724048  0.12273093  0.71045716    -0.23200
C2475       C  0.92029707  0.09698508  0.69462044    -0.00200
H2476       H  0.93391608  0.17753096  0.70338241     0.13500
H2477       H  0.95520016  0.12020799  0.73060427     0.13600
N2478       N  0.57242126  0.39519818  0.78408578    -0.02700
C2479       C  0.53824202  0.39384053  0.78572557    -0.00100
C2480       C  0.52913859  0.36909087  0.80830330    -0.23000
C2481       C  0.55857113  0.35438341  0.81971197    -0.23200
C2482       C  0.58491759  0.37047547  0.80380254    -0.00200
H2483       H  0.00388733  0.36185550  0.81514440     0.13500
H2484       H  0.56040218  0.33350165  0.83690694     0.13600
N2485       N  0.78719861  0.27961399  0.95477640    -0.02700
C2486       C  0.78818520  0.27717969  0.92069021    -0.00100
C2487       C  0.81264074  0.25418030  0.91194680    -0.23000
C2488       C  0.82754765  0.24330796  0.94145936    -0.23200
C2489       C  0.81178204  0.25986318  0.96750586    -0.00200
H2490       H  0.81939318  0.24651723  0.88685561     0.13500
H2491       H  0.84817338  0.22582779  0.94353174     0.13600
C2492       C  0.67753169  0.48735931  0.52805603     0.81000
N2493       N  0.65082458  0.48367531  0.54857644    -0.77300
C2494       C  0.64712976  0.50354081  0.57568152     0.83400
N2495       N  0.66752340  0.03038076  0.57905798    -0.77300
C2496       C  0.69363967  0.03523404  0.55786570     0.83500
N2497       N  0.69683905  0.51496105  0.53103500    -0.79000
O2498       O  0.52412903  0.01254688  0.69938330    -0.77800
C2499       C  0.98032843  0.00810101  0.81019657     0.83300
O2500       O  0.98282008  0.40702264  0.76409313    -0.78900
O2501       O  0.87939178  0.48188764  0.75366636    -0.80400
O2502       O  0.92147214  0.03824686  0.68032456    -0.80200
O2503       O  0.98947022  0.00171884  0.65665837    -0.78800
Zn2504     Zn  0.00154590  0.48675129  0.74010971     1.55700
O2505       O  0.92830848  0.05213346  0.73386603    -0.80200
Cd2506     Cd  0.94443155  0.99002146  0.68057755     1.59700
Cd2507     Cd  0.94269463  0.42961851  0.73628686     1.59600
O2508       O  0.91751051  0.44949361  0.65760045    -0.80200
O2509       O  0.95589289  0.47660238  0.72710206    -1.90700
Cd2510     Cd  0.92730473  0.00402716  0.75529305     1.59900
O2511       O  0.93198802  0.40645244  0.69056474    -0.80100
O2512       O  0.94964888  0.00239583  0.80287381    -0.78800
C2513       C  0.01397684  0.41536399  0.76617931     0.83800
C2514       C  0.51661562  0.01444743  0.66797788     0.83400
O2515       O  0.00259254  0.01028283  0.78702260    -0.77700
C2516       C  0.92312649  0.06051007  0.70336813     0.84200
O2517       O  0.02469563  0.44263925  0.75310238    -0.77800
C2518       C  0.91748967  0.41793404  0.66431462     0.84300
C2519       C  0.87145644  0.45110812  0.75741033     0.84700
O2520       O  0.89406697  0.42828379  0.75806783    -0.80300
C2521       C  0.77164108  0.30609523  0.97274139    -0.00600
C2522       C  0.79147849  0.33242614  0.98366529    -0.08600
C2523       C  0.77699100  0.36191211  0.99427517    -0.17400
C2524       C  0.74182526  0.36534054  0.99458054     0.05000
C2525       C  0.72178932  0.33665058  0.98827140     0.19200
C2526       C  0.73693453  0.30711941  0.97713416    -0.18800
C2527       C  0.68697216  0.33811618  0.99224183    -0.20100
C2528       C  0.67167190  0.36787899  0.00170877    -0.18600
C2529       C  0.69070835  0.39707586  0.00528919     0.20600
C2530       C  0.72600644  0.39623954  0.00104283     0.02700
C2531       C  0.74400988  0.42636634  0.50229018    -0.13400
C2532       C  0.72791466  0.45611623  0.50957436    -0.11100
C2533       C  0.69323604  0.45679794  0.51526115     0.02200
C2534       C  0.67474382  0.42709945  0.51307597    -0.23300
H2535       H  0.81830962  0.33029985  0.98287469     0.10200
H2536       H  0.79387408  0.38146359  0.00204179     0.13800
H2537       H  0.72186534  0.28569572  0.97011009     0.12500
H2538       H  0.67158025  0.31617828  0.98811762     0.13700
H2539       H  0.64472260  0.36831436  0.00523235     0.12700
H2540       H  0.77052695  0.42797600  0.49721221     0.09800
H2541       H  0.74295365  0.47859340  0.51102084     0.13100
H2542       H  0.64800750  0.42731433  0.51799099     0.15000
C2543       C  0.63286231  0.48866760  0.60616776    -0.00600
C2544       C  0.62494390  0.45453933  0.60665011    -0.08600
C2545       C  0.61706245  0.43863143  0.63643185    -0.17400
C2546       C  0.61732833  0.45637011  0.66687545     0.05000
C2547       C  0.62300351  0.49133125  0.66616906     0.19200
C2548       C  0.63153994  0.50699998  0.63601810    -0.18800
C2549       C  0.62031171  0.51020383  0.69557248    -0.20100
C2550       C  0.61069915  0.49502473  0.72547356    -0.18600
C2551       C  0.60603881  0.46039493  0.72689535     0.20600
C2552       C  0.61131882  0.44052697  0.69789467     0.02700
C2553       C  0.61078418  0.40546902  0.70115490    -0.13400
C2554       C  0.60084119  0.39097642  0.73094272    -0.11100
C2555       C  0.59067632  0.41067348  0.75766231     0.02200
C2556       C  0.59530661  0.44524835  0.75668784    -0.23300
H2557       H  0.62553775  0.43967049  0.58402576     0.10200
H2558       H  0.61046975  0.41252793  0.63480216     0.13800
H2559       H  0.63794025  0.03331193  0.63595514     0.12500
H2560       H  0.62469544  0.03690871  0.69520023     0.13700
H2561       H  0.60729207  0.51030953  0.74760196     0.12700
H2562       H  0.61789826  0.38872686  0.68121997     0.09800
H2563       H  0.59964280  0.36427335  0.73299590     0.13100
H2564       H  0.58873456  0.46021687  0.77833361     0.15000
C2565       C  0.87309715  0.09343163  0.65532716    -0.00600
C2566       C  0.87609926  0.08162590  0.62267555    -0.08600
C2567       C  0.84749053  0.07239987  0.60497302    -0.17400
C2568       C  0.81528429  0.07534640  0.61978484     0.05000
C2569       C  0.81316201  0.08623869  0.65357592     0.19200
C2570       C  0.84204219  0.09466758  0.67095920    -0.18800
C2571       C  0.78221248  0.09007644  0.66947711    -0.20100
C2572       C  0.75285767  0.08339301  0.65244852    -0.18600
C2573       C  0.75400405  0.07224851  0.61936123     0.20600
C2574       C  0.78511963  0.06825968  0.60238541     0.02700
C2575       C  0.78461169  0.05698879  0.56893542    -0.13400
C2576       C  0.75455005  0.04836001  0.55369012    -0.11100
C2577       C  0.72411528  0.05106459  0.57107386     0.02200
C2578       C  0.72408646  0.06380385  0.60363907    -0.23300
H2579       H  0.90036366  0.08127253  0.61043707     0.10200
H2580       H  0.85135585  0.06418568  0.57959180     0.13800
H2581       H  0.84042938  0.10474107  0.69598501     0.12500
H2582       H  0.78070672  0.09843601  0.69518084     0.13700
H2583       H  0.72913124  0.08653356  0.66538217     0.12700
H2584       H  0.80696778  0.05372093  0.55412670     0.09800
H2585       H  0.75541280  0.03840718  0.52851244     0.13100
H2586       H  0.70073718  0.06600249  0.61745029     0.15000
C2587       C  0.67859319  0.46899835  0.90449171    -0.00600
C2588       C  0.70734756  0.47274714  0.92356499    -0.08600
C2589       C  0.73715012  0.48234643  0.90886773    -0.17400
C2590       C  0.73880949  0.48803809  0.87405107     0.05000
C2591       C  0.70858605  0.48730005  0.85517272     0.19200
C2592       C  0.67856452  0.47757131  0.87060467    -0.18800
C2593       C  0.70894277  0.99521608  0.82099380    -0.20100
C2594       C  0.73881341  0.00415569  0.80536546    -0.18600
C2595       C  0.76902854  0.00356177  0.82319725     0.18600
C2596       C  0.76945573  0.49452206  0.85750924     0.02700
C2597       C  0.80063773  0.49172899  0.87388818    -0.13400
C2598       C  0.82996957  0.00048790  0.85776642    -0.11100
C2599       C  0.82945358  0.01116549  0.82434188     0.02200
C2600       C  0.79890605  0.01215778  0.80703669    -0.23300
H2601       H  0.70677293  0.46655350  0.94971934     0.10200
H2602       H  0.75834311  0.48477829  0.92538921     0.13800
H2603       H  0.65571896  0.47489560  0.85616258     0.12500
H2604       H  0.68601143  0.99484678  0.80644808     0.13700
H2605       H  0.73840496  0.01090106  0.77905966     0.12700
H2606       H  0.80330841  0.48285309  0.89924064     0.09800
H2607       H  0.85323862  0.49881335  0.87154176     0.13100
H2608       H  0.79817965  0.02050344  0.78120081     0.15000
C2609       C  0.86075778  0.10506234  0.76673351    -0.00600
C2610       C  0.87992068  0.13427405  0.76469322    -0.08600
C2611       C  0.86512911  0.16460639  0.75640301    -0.17400
C2612       C  0.83018286  0.16687390  0.75137872     0.05000
C2613       C  0.81063931  0.13735686  0.75486386     0.19200
C2614       C  0.82607095  0.10682658  0.76163795    -0.18800
C2615       C  0.77571102  0.13849007  0.75226883    -0.20100
C2616       C  0.75967444  0.16834668  0.74523933    -0.18600
C2617       C  0.77834406  0.19745846  0.74015684     0.20600
C2618       C  0.81385435  0.19735587  0.74336807     0.02700
C2619       C  0.83141547  0.22761209  0.73757012    -0.13400
C2620       C  0.81438533  0.25615506  0.72715906    -0.11100
C2621       C  0.77984173  0.25498245  0.72217683     0.02200
C2622       C  0.76178866  0.22641610  0.73026628    -0.23300
H2623       H  0.90645706  0.13388980  0.77034735     0.10200
H2624       H  0.88161867  0.18590291  0.75524145     0.13800
H2625       H  0.81064484  0.08464823  0.76424810     0.12500
H2626       H  0.76071685  0.11610076  0.75553153     0.13700
H2627       H  0.73259622  0.16849579  0.74295693     0.12700
H2628       H  0.85827669  0.22973242  0.73941805     0.09800
H2629       H  0.82830173  0.27859528  0.72094358     0.13100
H2630       H  0.73497281  0.22634771  0.72662801     0.15000
C2631       C  0.96133875  0.15120318  0.00881975    -0.00600
C2632       C  0.95496802  0.11700460  0.01038587    -0.08600
C2633       C  0.94439432  0.10020533  0.98179343    -0.17400
C2634       C  0.94028229  0.11765253  0.95112277     0.05000
C2635       C  0.94464869  0.15292667  0.95098793     0.19200
C2636       C  0.95452829  0.16923511  0.97993276    -0.18800
C2637       C  0.94096003  0.17157653  0.92163909    -0.20100
C2638       C  0.93430843  0.15572697  0.89170482    -0.18600
C2639       C  0.93075074  0.12100903  0.89074649     0.20600
C2640       C  0.93304363  0.10145333  0.92043447     0.02700
C2641       C  0.92811672  0.06660489  0.91799910    -0.13400
C2642       C  0.92075244  0.05197589  0.88736445    -0.11100
C2643       C  0.91922028  0.07131160  0.85814744     0.02200
C2644       C  0.92433771  0.10584716  0.86012584    -0.23300
H2645       H  0.45997533  0.10319632  0.53288797     0.10200
H2646       H  0.94110919  0.07357922  0.98420359     0.13800
H2647       H  0.95950229  0.19575311  0.97960648     0.12500
H2648       H  0.94400909  0.19847639  0.92167706     0.13700
H2649       H  0.93212330  0.17069576  0.86913305     0.12700
H2650       H  0.92897132  0.05004767  0.93929957     0.09800
H2651       H  0.91535423  0.02546832  0.88675185     0.13100
H2652       H  0.92235786  0.12136408  0.83790651     0.15000
C2653       C  0.84165540  0.40021459  0.80502772    -0.00600
C2654       C  0.85241070  0.41963103  0.83170255    -0.08600
C2655       C  0.86272190  0.40477040  0.86105712    -0.17400
C2656       C  0.86268628  0.36972356  0.86394706     0.05000
C2657       C  0.85773080  0.35012395  0.83479160     0.19200
C2658       C  0.84663401  0.36561120  0.80530886    -0.18800
C2659       C  0.86266082  0.31547794  0.83602960    -0.20100
C2660       C  0.87165780  0.30011311  0.86609316    -0.18600
C2661       C  0.87318273  0.31882216  0.89571826     0.20600
C2662       C  0.86731919  0.35371802  0.89495044     0.02700
C2663       C  0.86480586  0.37130313  0.92532035    -0.13400
C2664       C  0.87116430  0.35546949  0.95534866    -0.11100
C2665       C  0.87992763  0.32155681  0.95613209     0.02200
C2666       C  0.88045434  0.30318679  0.92620412    -0.23300
H2667       H  0.85114570  0.44640420  0.83007709     0.10200
H2668       H  0.87027062  0.42114590  0.88114095     0.13800
H2669       H  0.83988710  0.35090264  0.78356876     0.12500
H2670       H  0.85972034  0.30034372  0.81374690     0.13700
H2671       H  0.87606632  0.27337691  0.86645769     0.12700
H2672       H  0.85740827  0.39723283  0.92662549     0.09800
H2673       H  0.86987476  0.37026518  0.97800189     0.13100
H2674       H  0.88716694  0.27693250  0.92649512     0.15000
C2675       C  0.97187523  0.26390505  0.99069995    -0.00600
C2676       C  0.50133414  0.26347078  0.00969308    -0.08600
C2677       C  0.53194573  0.25567099  0.99498506    -0.17400
C2678       C  0.53409775  0.24884091  0.96038185     0.05000
C2679       C  0.50412548  0.24972543  0.94115970     0.19200
C2680       C  0.97353388  0.25683617  0.95642463    -0.18800
C2681       C  0.00481764  0.24418550  0.90663023    -0.20100
C2682       C  0.53477493  0.23706235  0.89071201    -0.18600
C2683       C  0.56444401  0.23483400  0.90910048     0.20600
C2684       C  0.56480975  0.24110429  0.94412669     0.02700
C2685       C  0.59577758  0.23845314  0.96132714    -0.13400
C2686       C  0.62455970  0.22780954  0.94462868    -0.11100
C2687       C  0.62299843  0.21993507  0.91069536     0.02200
C2688       C  0.59357955  0.22479932  0.89285879    -0.23300
H2689       H  0.50093350  0.27011941  0.03595673     0.10200
H2690       H  0.55345044  0.25593614  0.01126383     0.13800
H2691       H  0.95111780  0.25796422  0.94112906     0.12500
H2692       H  0.98204372  0.24528702  0.89186107     0.13700
H2693       H  0.53465748  0.23268755  0.86396050     0.12700
H2694       H  0.59836124  0.24313173  0.98774935     0.09800
H2695       H  0.64761153  0.22397068  0.95843696     0.13100
H2696       H  0.59315202  0.21852418  0.86662268     0.15000
C2697       C  0.93876472  0.35678192  0.54597535    -0.00600
C2698       C  0.91990552  0.38628544  0.54711409    -0.08600
C2699       C  0.93512109  0.41668755  0.55446943    -0.17400
C2700       C  0.97004091  0.41852306  0.56006473     0.05000
C2701       C  0.48915871  0.38863563  0.55758441     0.19200
C2702       C  0.97344449  0.35829625  0.55105280    -0.18800
C2703       C  0.52395501  0.38903501  0.56155490    -0.20100
C2704       C  0.54022449  0.41842644  0.56953027    -0.18600
C2705       C  0.52195979  0.44790307  0.57369640     0.20600
C2706       C  0.48670060  0.44872366  0.56845493     0.02700
C2707       C  0.96968226  0.47949167  0.57307072    -0.13400
C2708       C  0.48682558  0.50750149  0.58472202    -0.11100
C2709       C  0.52099801  0.50533053  0.59168295     0.02200
C2710       C  0.53862407  0.47629490  0.58469601    -0.23300
H2711       H  0.89328732  0.38599480  0.54178453     0.10200
H2712       H  0.91894584  0.43825414  0.55512062     0.13800
H2713       H  0.48877722  0.33600324  0.04870573     0.12500
H2714       H  0.53862886  0.36635274  0.55900515     0.13700
H2715       H  0.56712433  0.41790284  0.57328514     0.12700
H2716       H  0.94310481  0.48239114  0.56922982     0.09800
H2717       H  0.97322932  0.53034810  0.58999603     0.13100
H2718       H  0.56511558  0.47551086  0.58993259     0.15000
C2719       C  0.57977039  0.30060478  0.74050322    -0.00600
C2720       C  0.55002639  0.30116555  0.75914077    -0.08600
C2721       C  0.51987110  0.31003397  0.74417618    -0.17400
C2722       C  0.51856114  0.31800756  0.70974672     0.05000
C2723       C  0.54910459  0.31894633  0.69138449     0.19200
C2724       C  0.57911251  0.31000426  0.70670811    -0.18800
C2725       C  0.54953670  0.32802780  0.65758297    -0.20100
C2726       C  0.51997291  0.33598468  0.64136993    -0.18600
C2727       C  0.98947326  0.33450443  0.65853089     0.20600
C2728       C  0.98810445  0.32497477  0.69281832     0.02700
C2729       C  0.95627723  0.32273850  0.70849818    -0.13400
C2730       C  0.92733084  0.33177274  0.69124375    -0.11100
C2731       C  0.92961638  0.34296173  0.65827800     0.02200
C2732       C  0.96028465  0.34342206  0.64178169    -0.23300
H2733       H  0.54979227  0.29367658  0.78522026     0.10200
H2734       H  0.99806900  0.31000045  0.76014126     0.13800
H2735       H  0.60195511  0.30982670  0.69192529     0.12500
H2736       H  0.57286005  0.32894650  0.64360534     0.13700
H2737       H  0.52090980  0.34302450  0.61520504     0.12700
H2738       H  0.95294996  0.31468407  0.73404905     0.09800
H2739       H  0.90335355  0.33175002  0.70403708     0.13100
H2740       H  0.96136701  0.35273307  0.61640381     0.15000
C2741       C  0.61135190  0.20718039  0.79840813    -0.00600
C2742       C  0.63021690  0.17774796  0.80007990    -0.08600
C2743       C  0.61508565  0.14750101  0.80798850    -0.17400
C2744       C  0.58019674  0.14567902  0.81363776     0.05000
C2745       C  0.56118139  0.17571918  0.81222396     0.19200
C2746       C  0.57680024  0.20594572  0.80460177    -0.18800
C2747       C  0.52662427  0.17546420  0.81814390    -0.20100
C2748       C  0.51056790  0.14596182  0.82653784    -0.18600
C2749       C  0.52868140  0.11612104  0.82837637     0.20600
C2750       C  0.56354739  0.11523086  0.82103221     0.02700
C2751       C  0.58021388  0.08393377  0.82196744    -0.13400
C2752       C  0.56337019  0.05532654  0.83258033    -0.11100
C2753       C  0.52982456  0.05741877  0.84201999     0.02200
C2754       C  0.51232196  0.08722760  0.83870940    -0.23300
H2755       H  0.65677341  0.17788819  0.79438687     0.10200
H2756       H  0.63139475  0.12606546  0.80920899     0.13800
H2757       H  0.56170309  0.22843582  0.80284782     0.12500
H2758       H  0.51200328  0.19828338  0.81673503     0.13700
H2759       H  0.48391012  0.14651175  0.83180739     0.12700
H2760       H  0.60624900  0.08083372  0.81546240     0.09800
H2761       H  0.57680530  0.03190130  0.83501114     0.13100
H2762       H  0.48634475  0.08803238  0.84612516     0.15000
C2763       C  0.66952637  0.23881996  0.70620281    -0.00600
C2764       C  0.67514943  0.20425086  0.70514568    -0.08600
C2765       C  0.68092572  0.18839083  0.67494777    -0.17400
C2766       C  0.68155536  0.20678801  0.64482540     0.05000
C2767       C  0.67863827  0.24203460  0.64610979     0.19200
C2768       C  0.67136430  0.25758784  0.67654211    -0.18800
C2769       C  0.68316582  0.26127768  0.61705727    -0.20100
C2770       C  0.69265822  0.24605248  0.58717931    -0.18600
C2771       C  0.69480501  0.21118612  0.58531799     0.20600
C2772       C  0.68659784  0.19125194  0.61363503     0.02700
C2773       C  0.68394092  0.15641128  0.60969832    -0.13400
C2774       C  0.69489556  0.14160849  0.58049241    -0.11100
C2775       C  0.70908322  0.16092630  0.55514799     0.02200
C2776       C  0.70634244  0.19574871  0.55605543    -0.23300
H2777       H  0.67401651  0.18901763  0.72758063     0.10200
H2778       H  0.68556891  0.16181452  0.67594094     0.13800
H2779       H  0.66656700  0.28423290  0.67700815     0.12500
H2780       H  0.68074469  0.28824229  0.61779280     0.13700
H2781       H  0.69812520  0.26149303  0.56549867     0.12700
H2782       H  0.67390834  0.14017112  0.62889202     0.09800
H2783       H  0.69384553  0.11483604  0.57812580     0.13100
H2784       H  0.71536839  0.21054996  0.53511524     0.15000
N2785       N  0.72845693  0.64462365  0.03000056    -0.02700
C2786       C  0.76273071  0.64312618  0.02939660    -0.00100
C2787       C  0.77233164  0.61785749  0.00772822    -0.23000
C2788       C  0.74319639  0.60300455  0.99586207    -0.23200
C2789       C  0.71648633  0.61958307  0.01049335    -0.00200
H2790       H  0.79773205  0.61036016  0.00180946     0.13500
H2791       H  0.74171711  0.58175216  0.47928910     0.13600
N2792       N  0.51422753  0.53060486  0.35934822    -0.02700
C2793       C  0.51315888  0.52792990  0.39337859    -0.00100
C2794       C  0.48902142  0.50458228  0.40201933    -0.23000
C2795       C  0.97452039  0.49363229  0.37237345    -0.23200
C2796       C  0.99005143  0.51064330  0.34636987    -0.00200
H2797       H  0.48216499  0.99686733  0.42710885     0.13500
H2798       H  0.95414483  0.97594988  0.37023038     0.13600
N2799       N  0.90212521  0.85971588  0.14298843    -0.02700
C2800       C  0.89883202  0.89361288  0.14205860    -0.00100
C2801       C  0.87472005  0.90182391  0.11852959    -0.23000
C2802       C  0.86381181  0.87197319  0.10440953    -0.23200
C2803       C  0.88153802  0.84629498  0.11964128    -0.00200
H2804       H  0.86610567  0.92667583  0.11209283     0.13500
H2805       H  0.84530687  0.86941684  0.08478032     0.13600
C2806       C  0.61017129  0.78555691  0.25435273     0.81000
N2807       N  0.63677489  0.78123611  0.23374289    -0.77300
C2808       C  0.65676642  0.75412172  0.23689378     0.83400
N2809       N  0.65316008  0.73424783  0.26409747    -0.77300
C2810       C  0.62631864  0.73773843  0.28450173     0.83500
N2811       N  0.60657539  0.76501813  0.28106447    -0.79000
O2812       O  0.66828876  0.86225999  0.40603534    -0.77800
C2813       C  0.67261905  0.75200051  0.36164253     0.83300
O2814       O  0.77453022  0.79738948  0.36488100    -0.78900
O2815       O  0.69888205  0.80940700  0.26163459    -0.80400
O2816       O  0.64412005  0.88301366  0.30467798    -0.80200
O2817       O  0.68096193  0.90512023  0.37211768    -0.78800
Zn2818     Zn  0.69459335  0.82166782  0.38359391     1.55700
O2819       O  0.62876636  0.82987805  0.31130668    -0.80200
Cd2820     Cd  0.69245018  0.88144999  0.32717875     1.59700
Cd2821     Cd  0.75174031  0.82410099  0.32415867     1.59600
O2822       O  0.73325241  0.90388852  0.30007282    -0.80200
O2823       O  0.70501317  0.83466433  0.33803816    -1.90700
Cd2824     Cd  0.67661330  0.80763077  0.30947807     1.59900
O2825       O  0.77575256  0.86898277  0.31119968    -0.80100
O2826       O  0.67775717  0.75981204  0.33100368    -0.78800
C2827       C  0.76632242  0.79596411  0.39610429     0.83800
C2828       C  0.66713039  0.89373216  0.39873442     0.83400
O2829       O  0.67110165  0.77470476  0.38428495    -0.77700
C2830       C  0.62117411  0.86059536  0.30649173     0.84200
O2831       O  0.73894520  0.80904987  0.40667047    -0.77800
C2832       C  0.76457270  0.89605387  0.29812396     0.84300
C2833       C  0.72940714  0.80336962  0.25375214     0.84700
O2834       O  0.75198416  0.80055807  0.27644122    -0.80300
N2835       N  0.53764802  0.53099596  0.10958617    -0.02700
C2836       C  0.53881195  0.53313110  0.14366474    -0.00100
C2837       C  0.56329419  0.55601276  0.15239348    -0.23000
C2838       C  0.57820312  0.56690405  0.12281025    -0.23200
C2839       C  0.56232290  0.55053645  0.09674323    -0.00200
H2840       H  0.56990368  0.56374106  0.17747344     0.13500
H2841       H  0.59880047  0.58440258  0.12069308     0.13600
N2842       N  0.64948745  0.70242444  0.39461682    -0.02700
C2843       C  0.65211535  0.66844039  0.39322079    -0.00100
C2844       C  0.67587782  0.66013021  0.36935199    -0.23000
C2845       C  0.68708943  0.68993584  0.35527642    -0.23200
C2846       C  0.66986943  0.71567362  0.37086624    -0.00200
H2847       H  0.68393455  0.63521757  0.36254143     0.13500
H2848       H  0.70527492  0.69242243  0.33527260     0.13600
N2849       N  0.82278154  0.91617192  0.27930309    -0.02700
C2850       C  0.78858894  0.91810061  0.27883362    -0.00100
C2851       C  0.77921489  0.94409180  0.25786840    -0.23000
C2852       C  0.80850929  0.95902886  0.24636746    -0.23200
C2853       C  0.83503452  0.94168528  0.26046666    -0.00200
H2854       H  0.75388672  0.95199349  0.25222496     0.13500
H2855       H  0.81016050  0.98082779  0.23034001     0.13600
C2856       C  0.92370235  0.82539988  0.03394888     0.81000
N2857       N  0.94366600  0.79819765  0.03132747    -0.77300
C2858       C  0.94065159  0.77743097  0.50487779     0.83400
N2859       N  0.91372161  0.78059623  0.48455529    -0.77300
C2860       C  0.89312405  0.80730999  0.48727097     0.83500
N2861       N  0.89660775  0.82794957  0.51384458    -0.79000
O2862       O  0.63271452  0.61250070  0.40809765    -0.77800
C2863       C  0.62838184  0.00171026  0.45232244     0.83300
O2864       O  0.52671172  0.54846200  0.44894518    -0.78900
O2865       O  0.60234586  0.55854102  0.05242008    -0.80400
O2866       O  0.65745478  0.63265492  0.00824672    -0.80200
O2867       O  0.61924665  0.65534510  0.44154770    -0.78800
Zn2868     Zn  0.60671749  0.57171862  0.43043825     1.55700
O2869       O  0.67246275  0.57930514  0.00266936    -0.80200
Cd2870     Cd  0.60884202  0.63143378  0.48666556     1.59700
Cd2871     Cd  0.54942373  0.57512512  0.98976477     1.59600
O2872       O  0.56903091  0.65414295  0.01478425    -0.80200
O2873       O  0.59621602  0.58468685  0.47597636    -1.90700
Cd2874     Cd  0.62453243  0.55718870  0.00450525     1.59900
O2875       O  0.52605350  0.62050593  0.00225792    -0.80100
O2876       O  0.62332144  0.00938759  0.48297707    -0.78800
C2877       C  0.53502700  0.54669262  0.41775995     0.83800
C2878       C  0.63333058  0.64401283  0.41509873     0.83400
O2879       O  0.63014805  0.52457965  0.42978542    -0.77700
C2880       C  0.68021425  0.61002150  0.00704005     0.84200
O2881       O  0.56254628  0.55940976  0.40701744    -0.77800
C2882       C  0.53756020  0.64696720  0.01615791     0.84300
C2883       C  0.57164466  0.55347716  0.06037138     0.84700
O2884       O  0.54884282  0.55184425  0.03777708    -0.80300
N2885       N  0.47946310  0.66742172  0.03442610    -0.02700
C2886       C  0.51361327  0.66902932  0.03549071    -0.00100
C2887       C  0.52275587  0.69441393  0.05716898    -0.23000
C2888       C  0.49325912  0.70910746  0.06860652    -0.23200
C2889       C  0.96685866  0.69239982  0.05356685    -0.00200
H2890       H  0.54801682  0.70204459  0.06340414     0.13500
H2891       H  0.49141573  0.73032691  0.08527368     0.13600
N2892       N  0.76325134  0.78107004  0.20444381    -0.02700
C2893       C  0.76263921  0.78414175  0.17043750    -0.00100
C2894       C  0.73868511  0.80771851  0.16190419    -0.23000
C2895       C  0.72363465  0.81818067  0.19151456    -0.23200
C2896       C  0.73882964  0.80079586  0.21741069    -0.00200
H2897       H  0.73257077  0.81625548  0.13691903     0.13500
H2898       H  0.70342659  0.83611500  0.19374954     0.13600
N2899       N  0.65089293  0.95210374  0.41906473    -0.02700
C2900       C  0.64810205  0.91812252  0.42044574    -0.00100
C2901       C  0.62431925  0.90984727  0.44433879    -0.23000
C2902       C  0.61350252  0.93962792  0.45866817    -0.23200
C2903       C  0.63076444  0.96536024  0.44299412    -0.00200
H2904       H  0.61600583  0.88495893  0.45100351     0.13500
H2905       H  0.59552075  0.94209196  0.47884656     0.13600
C2906       C  0.87555802  0.57422700  0.27970727     0.81000
N2907       N  0.90255476  0.57731513  0.29989681    -0.77300
C2908       C  0.90649168  0.55677848  0.32655817     0.83400
N2909       N  0.88677946  0.52943750  0.32914663    -0.77300
C2910       C  0.85961131  0.52593426  0.30924045     0.83500
N2911       N  0.85568112  0.54702679  0.28302060    -0.79000
O2912       O  0.88255402  0.69988982  0.15669500    -0.77800
C2913       C  0.87862203  0.80988941  0.11079390     0.83300
O2914       O  0.77626061  0.76366432  0.11483833    -0.78900
O2915       O  0.85184953  0.75157580  0.01157214    -0.80400
O2916       O  0.90771701  0.67890877  0.05531215    -0.80200
O2917       O  0.87049476  0.65670637  0.12313458    -0.78800
Zn2918     Zn  0.85660441  0.74027121  0.13356107     1.55700
O2919       O  0.92239668  0.73231551  0.06091135    -0.80200
Cd2920     Cd  0.85906677  0.67996988  0.07769736     1.59700
Cd2921     Cd  0.79928958  0.73672168  0.07455897     1.59600
O2922       O  0.81820705  0.65746499  0.05041756    -0.80200
O2923       O  0.84619953  0.72673125  0.08825011    -1.90700
Cd2924     Cd  0.87425722  0.75393449  0.05926474     1.59900
O2925       O  0.77546947  0.69166442  0.06246399    -0.80100
O2926       O  0.87301277  0.80192464  0.08032636    -0.78800
C2927       C  0.78460631  0.76551803  0.14594834     0.83800
C2928       C  0.88387014  0.66837719  0.14982118     0.83400
O2929       O  0.88030135  0.78726234  0.13362234    -0.77700
C2930       C  0.93039165  0.70166597  0.05651611     0.84200
O2931       O  0.81221349  0.75293669  0.15650163    -0.77800
C2932       C  0.78675245  0.66498278  0.04886672     0.84300
C2933       C  0.82121875  0.75715316  0.50378867     0.84700
O2934       O  0.79864603  0.75971035  0.02653898    -0.80300
N2935       N  0.90005896  0.61027721  0.17078373    -0.02700
C2936       C  0.90256670  0.64423011  0.17217044    -0.00100
C2937       C  0.92603308  0.65254178  0.19625891    -0.23000
C2938       C  0.93727152  0.62266443  0.21029435    -0.23200
C2939       C  0.92027737  0.59691026  0.19452879    -0.00200
H2940       H  0.93390807  0.67745984  0.20320621     0.13500
H2941       H  0.95530049  0.62015439  0.23038106     0.13600
N2942       N  0.57239186  0.89510209  0.28405633    -0.02700
C2943       C  0.53820645  0.89367453  0.28558784    -0.00100
C2944       C  0.52908517  0.86884531  0.30807140    -0.23000
C2945       C  0.55850932  0.85416270  0.31952978    -0.23200
C2946       C  0.58487010  0.87035299  0.30374947    -0.00200
H2947       H  0.00382780  0.86153582  0.31481019     0.13500
H2948       H  0.56032852  0.83322638  0.33665941     0.13600
N2949       N  0.78708276  0.77949669  0.45474409    -0.02700
C2950       C  0.78814632  0.77714266  0.42065037    -0.00100
C2951       C  0.81272939  0.75427723  0.41190592    -0.23000
C2952       C  0.82762733  0.74340480  0.44142348    -0.23200
C2953       C  0.81173216  0.75982641  0.46747616    -0.00200
H2954       H  0.81958521  0.74671987  0.38681001     0.13500
H2955       H  0.84834571  0.72603360  0.44349516     0.13600
C2956       C  0.67755467  0.98742054  0.02816555     0.81000
N2957       N  0.65087980  0.98366107  0.04871701    -0.77300
C2958       C  0.64714151  0.00353142  0.07581473     0.83400
N2959       N  0.66733239  0.53045539  0.07918191    -0.77300
C2960       C  0.69344434  0.53534591  0.05799455     0.83500
N2961       N  0.69682112  0.01504589  0.03116059    -0.79000
O2962       O  0.52407860  0.51251267  0.19928897    -0.77800
C2963       C  0.98030007  0.50808372  0.31009542     0.83300
O2964       O  0.98278197  0.90687166  0.26395357    -0.78900
O2965       O  0.87935959  0.98183921  0.25362019    -0.80400
O2966       O  0.92141639  0.53817666  0.18025181    -0.80200
O2967       O  0.98941483  0.50170509  0.15656493    -0.78800
Zn2968     Zn  0.00151444  0.98662534  0.24004917     1.55700
O2969       O  0.92834376  0.55207132  0.23377586    -0.80200
Cd2970     Cd  0.94441271  0.48998749  0.18049864     1.59700
Cd2971     Cd  0.94261922  0.92951773  0.23621709     1.59600
O2972       O  0.91742102  0.94946186  0.15750699    -0.80200
O2973       O  0.95585233  0.97649222  0.22704491    -1.90700
Cd2974     Cd  0.92730724  0.50396551  0.25519991     1.59900
O2975       O  0.93183125  0.90640720  0.19048188    -0.80100
O2976       O  0.94963278  0.50231748  0.30277851    -0.78800
C2977       C  0.01394133  0.91521073  0.26604965     0.83800
C2978       C  0.51655596  0.51442919  0.16788648     0.83400
O2979       O  0.00254722  0.51033682  0.28691330    -0.77700
C2980       C  0.92311977  0.56044302  0.20328513     0.84200
O2981       O  0.02465614  0.94250226  0.25300819    -0.77800
C2982       C  0.91735832  0.91790592  0.16422336     0.84300
C2983       C  0.87140404  0.95106716  0.25738292     0.84700
O2984       O  0.89400076  0.92822649  0.25804959    -0.80300
C2985       C  0.77147138  0.80593304  0.47272940    -0.00600
C2986       C  0.79130267  0.83218287  0.48386174    -0.08600
C2987       C  0.77682046  0.86168297  0.49442131    -0.17400
C2988       C  0.74166614  0.86518708  0.49450076     0.05000
C2989       C  0.72160237  0.83654642  0.48807553     0.19200
C2990       C  0.73674401  0.80700595  0.47695827    -0.18800
C2991       C  0.68677408  0.83807634  0.49192812    -0.20100
C2992       C  0.67150736  0.86785299  0.50141911    -0.18600
C2993       C  0.69058967  0.89701365  0.50507084     0.20600
C2994       C  0.72588980  0.89611297  0.50088624     0.02700
C2995       C  0.74407942  0.92647037  0.00239983    -0.13400
C2996       C  0.72797902  0.95621897  0.00970209    -0.11100
C2997       C  0.69328075  0.95690893  0.01528286     0.02200
C2998       C  0.67476877  0.92724311  0.01291048    -0.23300
H2999       H  0.81813297  0.82998406  0.48327362     0.10200
H3000       H  0.79368905  0.88118497  0.50234921     0.13800
H3001       H  0.72166863  0.78562383  0.46982266     0.12500
H3002       H  0.67135350  0.81617397  0.48772422     0.13700
H3003       H  0.64455372  0.86833112  0.50489721     0.12700
H3004       H  0.77062200  0.92805879  0.99744683     0.09800
H3005       H  0.74303182  0.97867721  0.01129292     0.13100
H3006       H  0.64801520  0.92747194  0.01772899     0.15000
C3007       C  0.63285836  0.98866640  0.10629645    -0.00600
C3008       C  0.62496277  0.95453230  0.10679666    -0.08600
C3009       C  0.61718382  0.93861999  0.13660311    -0.17400
C3010       C  0.61744618  0.95638570  0.16702904     0.05000
C3011       C  0.62299741  0.99136152  0.16629430     0.19200
C3012       C  0.63151753  0.00701838  0.13613605    -0.18800
C3013       C  0.62018371  0.01025548  0.19567501    -0.20100
C3014       C  0.61051883  0.99507660  0.22556269    -0.18600
C3015       C  0.60600137  0.96042820  0.22700780     0.20600
C3016       C  0.61149913  0.94055428  0.19805597     0.02700
C3017       C  0.61123440  0.90550222  0.20136671    -0.13400
C3018       C  0.60125003  0.89098846  0.23112799    -0.11100
C3019       C  0.59072708  0.91065999  0.25773385     0.02200
C3020       C  0.59518468  0.94526017  0.25675747    -0.23300
H3021       H  0.62555842  0.93965342  0.08417877     0.10200
H3022       H  0.61064969  0.91249572  0.13502048     0.13800
H3023       H  0.63778785  0.53337942  0.13607012     0.12500
H3024       H  0.62446156  0.53702788  0.19529993     0.13700
H3025       H  0.60696672  0.01037253  0.24766035     0.12700
H3026       H  0.61860110  0.88880094  0.18148531     0.09800
H3027       H  0.60031163  0.86427377  0.23324193     0.13100
H3028       H  0.58841232  0.96021734  0.27834923     0.15000
C3029       C  0.87298753  0.59329419  0.15536531    -0.00600
C3030       C  0.87595341  0.58144257  0.12272982    -0.08600
C3031       C  0.84732428  0.57218007  0.10508504    -0.17400
C3032       C  0.81513805  0.57515551  0.11993605     0.05000
C3033       C  0.81306718  0.58598074  0.15375051     0.19200
C3034       C  0.84196968  0.59445246  0.17107136    -0.18800
C3035       C  0.78214365  0.58974372  0.16972311    -0.20100
C3036       C  0.75276039  0.58311778  0.15271652    -0.18600
C3037       C  0.75385321  0.57213209  0.11957248     0.20600
C3038       C  0.78494627  0.56818584  0.10254382     0.02700
C3039       C  0.78439089  0.55712139  0.06902778    -0.13400
C3040       C  0.75431229  0.54858009  0.05377898    -0.11100
C3041       C  0.72390239  0.55119434  0.07121553     0.02200
C3042       C  0.72390768  0.56380791  0.10383307    -0.23300
H3043       H  0.90019974  0.58108876  0.11045588     0.10200
H3044       H  0.85115965  0.56391863  0.07971506     0.13800
H3045       H  0.84039450  0.60452462  0.19609473     0.12500
H3046       H  0.78068003  0.59802093  0.19545789     0.13700
H3047       H  0.72905371  0.58621016  0.16569809     0.12700
H3048       H  0.80672146  0.55395524  0.05415929     0.09800
H3049       H  0.75514489  0.53874283  0.02855468     0.13100
H3050       H  0.70057172  0.56596890  0.11767252     0.15000
C3051       C  0.67847257  0.96912749  0.40437215    -0.00600
C3052       C  0.70711331  0.97326879  0.42353468    -0.08600
C3053       C  0.73687432  0.98307447  0.40889071    -0.17400
C3054       C  0.73859818  0.98859083  0.37405064     0.05000
C3055       C  0.70843599  0.98757398  0.35509226     0.19200
C3056       C  0.67845788  0.97761964  0.37046372    -0.18800
C3057       C  0.70871197  0.49588613  0.32111325    -0.20100
C3058       C  0.73856473  0.50476903  0.30541504    -0.18600
C3059       C  0.76883632  0.50400757  0.32314675     0.18600
C3060       C  0.76925866  0.99509911  0.35755075     0.02700
C3061       C  0.80041019  0.99242813  0.37400681    -0.13400
C3062       C  0.82986917  0.50064237  0.35752833    -0.11100
C3063       C  0.82930362  0.51131090  0.32410367     0.02200
C3064       C  0.79870532  0.51245780  0.30689288    -0.23300
H3065       H  0.70649141  0.96726778  0.44973213     0.10200
H3066       H  0.75799052  0.98580310  0.42546457     0.13800
H3067       H  0.65567431  0.97472134  0.35596812     0.12500
H3068       H  0.68573487  0.49562437  0.30663689     0.13700
H3069       H  0.73809968  0.51157105  0.27912443     0.12700
H3070       H  0.80303209  0.98372833  0.39942551     0.09800
H3071       H  0.85302592  0.99939302  0.37167408     0.13100
H3072       H  0.79793823  0.52080055  0.28105675     0.15000
C3073       C  0.86064334  0.60506970  0.26648764    -0.00600
C3074       C  0.87983224  0.63426002  0.26442366    -0.08600
C3075       C  0.86505111  0.66461676  0.25622490    -0.17400
C3076       C  0.83009207  0.66693028  0.25132345     0.05000
C3077       C  0.81052243  0.63743313  0.25483454     0.19200
C3078       C  0.82593902  0.60687840  0.26152323    -0.18800
C3079       C  0.77558731  0.63861165  0.25235102    -0.20100
C3080       C  0.75956877  0.66849681  0.24540650    -0.18600
C3081       C  0.77826358  0.69758307  0.24026992     0.20600
C3082       C  0.81378181  0.69743648  0.24338761     0.02700
C3083       C  0.83136830  0.72767018  0.23754759    -0.13400
C3084       C  0.81435900  0.75621134  0.22710711    -0.11100
C3085       C  0.77981049  0.75505993  0.22216276     0.02200
C3086       C  0.76172907  0.72654875  0.23038005    -0.23300
H3087       H  0.90638330  0.63384122  0.27000259     0.10200
H3088       H  0.88156474  0.68589286  0.25503644     0.13800
H3089       H  0.81049643  0.58471436  0.26415656     0.12500
H3090       H  0.76057493  0.61623776  0.25563595     0.13700
H3091       H  0.73248371  0.66868290  0.24320683     0.12700
H3092       H  0.85823376  0.72976863  0.23936184     0.09800
H3093       H  0.82829129  0.77862567  0.22083357     0.13100
H3094       H  0.73490188  0.72651790  0.22681922     0.15000
C3095       C  0.96113065  0.65122484  0.50849973    -0.00600
C3096       C  0.95488525  0.61699977  0.51003503    -0.08600
C3097       C  0.94434744  0.60018345  0.48143768    -0.17400
C3098       C  0.94013268  0.61763838  0.45078697     0.05000
C3099       C  0.94437290  0.65292890  0.45067724     0.19200
C3100       C  0.95420794  0.66925591  0.47963481    -0.18800
C3101       C  0.94062107  0.67157963  0.42133535    -0.20100
C3102       C  0.93405378  0.65571849  0.39138488    -0.18600
C3103       C  0.93059815  0.62098970  0.39040840     0.20600
C3104       C  0.93292078  0.60143221  0.42009210     0.02700
C3105       C  0.92803156  0.56657770  0.41764927    -0.13400
C3106       C  0.92068438  0.55194413  0.38701032    -0.11100
C3107       C  0.91914549  0.57127887  0.35779299     0.02200
C3108       C  0.92423593  0.60581994  0.35977777    -0.23300
H3109       H  0.46044079  0.60308377  0.03295727     0.10200
H3110       H  0.94119228  0.57353940  0.48382153     0.13800
H3111       H  0.95907406  0.69579406  0.47932543     0.12500
H3112       H  0.94357391  0.69849112  0.42138930     0.13700
H3113       H  0.93183815  0.67068890  0.36881718     0.12700
H3114       H  0.92887752  0.55002306  0.43895200     0.09800
H3115       H  0.91529715  0.52543453  0.38639516     0.13100
H3116       H  0.92224299  0.62133813  0.33756079     0.15000
C3117       C  0.84149973  0.90032216  0.30509078    -0.00600
C3118       C  0.85183828  0.91976709  0.33190596    -0.08600
C3119       C  0.86206037  0.90492851  0.36130407    -0.17400
C3120       C  0.86232280  0.86987413  0.36411132     0.05000
C3121       C  0.85770747  0.85030064  0.33487616     0.19200
C3122       C  0.84671869  0.86576184  0.30534580    -0.18800
C3123       C  0.86287244  0.81569046  0.33606041    -0.20100
C3124       C  0.87180385  0.80032195  0.36613229    -0.18600
C3125       C  0.87306288  0.81897720  0.39580030     0.20600
C3126       C  0.86694397  0.85383066  0.39510024     0.02700
C3127       C  0.86422655  0.87132154  0.42551335    -0.13400
C3128       C  0.87067116  0.85546509  0.45551685    -0.11100
C3129       C  0.87967817  0.82161614  0.45622446     0.02200
C3130       C  0.88035900  0.80332137  0.42625792    -0.23300
H3131       H  0.85028612  0.94652867  0.33034658     0.10200
H3132       H  0.86929947  0.92132929  0.38147888     0.13800
H3133       H  0.84023982  0.85104958  0.28352656     0.12500
H3134       H  0.86017480  0.80058761  0.31372519     0.13700
H3135       H  0.87640260  0.77361664  0.36645708     0.12700
H3136       H  0.85663923  0.89719285  0.42687145     0.09800
H3137       H  0.86925749  0.87018904  0.47821069     0.13100
H3138       H  0.88724928  0.77711209  0.42648818     0.15000
C3139       C  0.97172879  0.76391822  0.49051598    -0.00600
C3140       C  0.50120794  0.76344238  0.50947021    -0.08600
C3141       C  0.53178962  0.75562203  0.49472404    -0.17400
C3142       C  0.53389786  0.74880159  0.46011760     0.05000
C3143       C  0.50390006  0.74967728  0.44093365     0.19200
C3144       C  0.97333346  0.75684743  0.45623417    -0.18800
C3145       C  0.00454567  0.74404113  0.40641673    -0.20100
C3146       C  0.53447517  0.73681195  0.39048370    -0.18600
C3147       C  0.56417468  0.73464600  0.40883496     0.20600
C3148       C  0.56459182  0.74105855  0.44383410     0.02700
C3149       C  0.59559939  0.73856198  0.46098535    -0.13400
C3150       C  0.62437281  0.72791018  0.44428659    -0.11100
C3151       C  0.62276684  0.71986610  0.41039945     0.02200
C3152       C  0.59329786  0.72456278  0.39259178    -0.23300
H3153       H  0.50084770  0.77006792  0.53574008     0.10200
H3154       H  0.55330267  0.75582940  0.51099201     0.13800
H3155       H  0.95089480  0.75798904  0.44097261     0.12500
H3156       H  0.98175322  0.74512253  0.39167475     0.13700
H3157       H  0.53431774  0.73233398  0.36374887     0.12700
H3158       H  0.59823814  0.74340904  0.48737081     0.09800
H3159       H  0.64746419  0.72420947  0.45806614     0.13100
H3160       H  0.59283182  0.71814879  0.36638776     0.15000
C3161       C  0.93879984  0.85665015  0.04589126    -0.00600
C3162       C  0.91988040  0.88610269  0.04723199    -0.08600
C3163       C  0.93506678  0.91651696  0.05459728    -0.17400
C3164       C  0.97002157  0.91842616  0.05995353     0.05000
C3165       C  0.48920884  0.88861216  0.05717198     0.19200
C3166       C  0.97351794  0.85824062  0.05071137    -0.18800
C3167       C  0.52405071  0.88912613  0.06073965    -0.20100
C3168       C  0.54031689  0.91856562  0.06856918    -0.18600
C3169       C  0.52199050  0.94795016  0.07311161     0.20600
C3170       C  0.48665726  0.94863823  0.06834941     0.02700
C3171       C  0.96955121  0.97927687  0.07344884    -0.13400
C3172       C  0.48671671  0.00728345  0.08506325    -0.11100
C3173       C  0.52099088  0.00523473  0.09156354     0.02200
C3174       C  0.53867967  0.97635614  0.08406206    -0.23300
H3175       H  0.89323517  0.88576282  0.04204423     0.10200
H3176       H  0.91884851  0.93804617  0.05538657     0.13800
H3177       H  0.48862698  0.83576459  0.54926538     0.12500
H3178       H  0.53876922  0.86649858  0.05796907     0.13700
H3179       H  0.56726789  0.91813840  0.07197174     0.12700
H3180       H  0.94289751  0.98205314  0.07007056     0.09800
H3181       H  0.97306985  0.03000688  0.09072776     0.13100
H3182       H  0.56526183  0.97566513  0.08889296     0.15000
C3183       C  0.57974739  0.80074561  0.24035193    -0.00600
C3184       C  0.54996940  0.80114546  0.25893661    -0.08600
C3185       C  0.51984029  0.81010197  0.24398632    -0.17400
C3186       C  0.51858811  0.81833032  0.20961708     0.05000
C3187       C  0.54916813  0.81949529  0.19133037     0.19200
C3188       C  0.57915556  0.81044208  0.20663724    -0.18800
C3189       C  0.54964862  0.82888388  0.15761098    -0.20100
C3190       C  0.52008815  0.83684879  0.14138733    -0.18600
C3191       C  0.98954663  0.83504402  0.15844672     0.20600
C3192       C  0.98814467  0.82528099  0.19266789     0.02700
C3193       C  0.95629481  0.82275078  0.20825550    -0.13400
C3194       C  0.92733313  0.83165547  0.19097174    -0.11100
C3195       C  0.92962160  0.84302058  0.15806959     0.02200
C3196       C  0.96033768  0.84383768  0.14166487    -0.23300
H3197       H  0.54968332  0.79345579  0.28495773     0.10200
H3198       H  0.99801219  0.80992153  0.25991253     0.13800
H3199       H  0.60203173  0.81040597  0.19190473     0.12500
H3200       H  0.57300272  0.83001003  0.14370038     0.13700
H3201       H  0.52106087  0.84411807  0.11528272     0.12700
H3202       H  0.95294956  0.81453896  0.23375322     0.09800
H3203       H  0.90332479  0.83140186  0.20370526     0.13100
H3204       H  0.96142521  0.85332549  0.11634590     0.15000
C3205       C  0.61126959  0.70711173  0.29807109    -0.00600
C3206       C  0.63016048  0.67769622  0.29977438    -0.08600
C3207       C  0.61504770  0.64743517  0.30768373    -0.17400
C3208       C  0.58015497  0.64558210  0.31331394     0.05000
C3209       C  0.56110715  0.67559825  0.31181625     0.19200
C3210       C  0.57670649  0.70583724  0.30419568    -0.18800
C3211       C  0.52653975  0.67531298  0.31767576    -0.20100
C3212       C  0.51050404  0.64581155  0.32611318    -0.18600
C3213       C  0.52865227  0.61599956  0.32807222     0.20600
C3214       C  0.56353271  0.61513252  0.32078459     0.02700
C3215       C  0.58024130  0.58386216  0.32187260    -0.13400
C3216       C  0.56341601  0.55526825  0.33255781    -0.11100
C3217       C  0.52984714  0.55734433  0.34192472     0.02200
C3218       C  0.51231060  0.58711868  0.33847631    -0.23300
H3219       H  0.65672667  0.67786520  0.29412641     0.10200
H3220       H  0.63137520  0.62601470  0.30892891     0.13800
H3221       H  0.56158684  0.72830954  0.30240558     0.12500
H3222       H  0.51189518  0.69811304  0.31619749     0.13700
H3223       H  0.48383718  0.64634453  0.33134300     0.12700
H3224       H  0.60629626  0.58077737  0.31543965     0.09800
H3225       H  0.57687730  0.53186841  0.33508959     0.13100
H3226       H  0.48631232  0.58791279  0.34582983     0.15000
C3227       C  0.66958215  0.73894934  0.20602043    -0.00600
C3228       C  0.67529228  0.70439532  0.20497008    -0.08600
C3229       C  0.68104793  0.68853722  0.17477394    -0.17400
C3230       C  0.68156736  0.70692105  0.14464512     0.05000
C3231       C  0.67862391  0.74216442  0.14591616     0.19200
C3232       C  0.67136808  0.75771846  0.17635372    -0.18800
C3233       C  0.68309695  0.76139337  0.11684380    -0.20100
C3234       C  0.69255085  0.74615007  0.08695873    -0.18600
C3235       C  0.69470899  0.71128091  0.08511937     0.20600
C3236       C  0.68653981  0.69136850  0.11345911     0.02700
C3237       C  0.68387162  0.65652570  0.10955913    -0.13400
C3238       C  0.69483724  0.64169210  0.08037694    -0.11100
C3239       C  0.70901393  0.66099145  0.05501191     0.02200
C3240       C  0.70624516  0.69581578  0.05587063    -0.23300
H3241       H  0.67422050  0.68916412  0.22740878     0.10200
H3242       H  0.68575081  0.66197078  0.17576787     0.13800
H3243       H  0.66652434  0.78435556  0.17681594     0.12500
H3244       H  0.68067099  0.78835820  0.11756919     0.13700
H3245       H  0.69798593  0.76157671  0.06526039     0.12700
H3246       H  0.67384675  0.64030804  0.12877705     0.09800
H3247       H  0.69382794  0.61491192  0.07805820     0.13100
H3248       H  0.71526392  0.71059723  0.03491373     0.15000
N3249       N  0.72839436  0.64465539  0.53005103    -0.02700
C3250       C  0.76266958  0.64314672  0.52945675    -0.00100
C3251       C  0.77227000  0.61786394  0.50780514    -0.23000
C3252       C  0.74313606  0.60301178  0.49593939    -0.23200
C3253       C  0.71642486  0.61960880  0.51054763    -0.00200
H3254       H  0.79767012  0.61035746  0.50189678     0.13500
H3255       H  0.74177679  0.58175488  0.97919921     0.13600
N3256       N  0.51422514  0.53062896  0.85943303    -0.02700
C3257       C  0.51316604  0.52794559  0.89345914    -0.00100
C3258       C  0.48905745  0.50456878  0.90210018    -0.23000
C3259       C  0.97456398  0.49361005  0.87245141    -0.23200
C3260       C  0.99007413  0.51064508  0.84644984    -0.00200
H3261       H  0.48224650  0.99681066  0.92719175     0.13500
H3262       H  0.95423421  0.97588105  0.87030820     0.13600
N3263       N  0.90201899  0.85972499  0.64320135    -0.02700
C3264       C  0.89879930  0.89363333  0.64222867    -0.00100
C3265       C  0.87477858  0.90187361  0.61861659    -0.23000
C3266       C  0.86387204  0.87203870  0.60446678    -0.23200
C3267       C  0.88150642  0.84633700  0.61976322    -0.00200
H3268       H  0.86624516  0.92673886  0.61212327     0.13500
H3269       H  0.84544504  0.86950900  0.58476115     0.13600
C3270       C  0.61013615  0.78552779  0.75448091     0.81000
N3271       N  0.63673468  0.78122203  0.73385932    -0.77300
C3272       C  0.65674394  0.75411945  0.73700337     0.83400
N3273       N  0.65317061  0.73425627  0.76421752    -0.77300
C3274       C  0.62634431  0.73774409  0.78464266     0.83500
N3275       N  0.60659567  0.76502229  0.78122271    -0.79000
O3276       O  0.66828446  0.86221008  0.90607809    -0.77800
C3277       C  0.67269889  0.75199908  0.86171314     0.83300
O3278       O  0.77454349  0.79740526  0.86487800    -0.78900
O3279       O  0.69889209  0.80937379  0.76167501    -0.80400
O3280       O  0.64415349  0.88302010  0.80457010    -0.80200
O3281       O  0.68085379  0.90505507  0.87210235    -0.78800
Zn3282     Zn  0.69464636  0.82168498  0.88362510     1.55700
O3283       O  0.62877346  0.82991156  0.81133413    -0.80200
Cd3284     Cd  0.69244259  0.88144912  0.82715626     1.59700
Cd3285     Cd  0.75175040  0.82413385  0.82418217     1.59600
O3286       O  0.73326965  0.90390447  0.80008604    -0.80200
O3287       O  0.70501954  0.83467846  0.83805343    -1.90700
Cd3288     Cd  0.67661609  0.80763362  0.80951775     1.59900
O3289       O  0.77576486  0.86901702  0.81126975    -0.80100
O3290       O  0.67777112  0.75982111  0.83106630    -0.78800
C3291       C  0.76636725  0.79602919  0.89610949     0.83800
C3292       C  0.66707005  0.89366963  0.89874628     0.83400
O3293       O  0.67123552  0.77469355  0.88436656    -0.77700
C3294       C  0.62119477  0.86062176  0.80644497     0.84200
O3295       O  0.73902065  0.80916402  0.90668897    -0.77800
C3296       C  0.76459329  0.89607317  0.79816307     0.84300
C3297       C  0.72942214  0.80336572  0.75378466     0.84700
O3298       O  0.75201509  0.80060844  0.77646249    -0.80300
N3299       N  0.53763427  0.53106166  0.60964821    -0.02700
C3300       C  0.53883985  0.53320833  0.64372226    -0.00100
C3301       C  0.56335160  0.55607242  0.65241608    -0.23000
C3302       C  0.57823114  0.56694261  0.62280767    -0.23200
C3303       C  0.56230749  0.55057720  0.59676208    -0.00200
H3304       H  0.57000700  0.56379454  0.67748617     0.13500
H3305       H  0.59884533  0.58441805  0.62066021     0.13600
N3306       N  0.64960449  0.70243119  0.89472210    -0.02700
C3307       C  0.65215611  0.66844124  0.89326282    -0.00100
C3308       C  0.67583643  0.66011936  0.86931713    -0.23000
C3309       C  0.68706781  0.68992166  0.85525296    -0.23200
C3310       C  0.66994356  0.71567003  0.87092762    -0.00200
H3311       H  0.68381263  0.63520034  0.86243660     0.13500
H3312       H  0.70519075  0.69240022  0.83519168     0.13600
N3313       N  0.82281773  0.91618205  0.77934729    -0.02700
C3314       C  0.78862237  0.91809921  0.77886345    -0.00100
C3315       C  0.77925146  0.94406525  0.75786527    -0.23000
C3316       C  0.80854377  0.95901968  0.74638415    -0.23200
C3317       C  0.83506761  0.94170719  0.76052092    -0.00200
H3318       H  0.75392317  0.95193967  0.75218616     0.13500
H3319       H  0.81019311  0.98081075  0.73034568     0.13600
C3320       C  0.92366386  0.82544502  0.53400397     0.81000
N3321       N  0.94363083  0.79824931  0.53132130    -0.77300
C3322       C  0.94071969  0.77735479  0.00489866     0.83400
N3323       N  0.91381166  0.78049790  0.98453792    -0.77300
C3324       C  0.89320064  0.80720472  0.98721520     0.83500
N3325       N  0.89664394  0.82785477  0.01378753    -0.79000
O3326       O  0.63274624  0.61249632  0.90812541    -0.77800
C3327       C  0.62841927  0.00167316  0.95234668     0.83300
O3328       O  0.52671581  0.54853321  0.94900113    -0.78900
O3329       O  0.60230977  0.55856973  0.55241510    -0.80400
O3330       O  0.65738603  0.63267329  0.50827968    -0.80200
O3331       O  0.61926123  0.65533830  0.94157099    -0.78800
Zn3332     Zn  0.60675676  0.57170289  0.93046702     1.55700
O3333       O  0.67241203  0.57933286  0.50267762    -0.80200
Cd3334     Cd  0.60888988  0.63143569  0.98669536     1.59700
Cd3335     Cd  0.54939038  0.57505323  0.48973839     1.59600
O3336       O  0.56894020  0.65410295  0.51470228    -0.80200
O3337       O  0.59625964  0.58468719  0.97600406    -1.90700
Cd3338     Cd  0.62448834  0.55721339  0.50449551     1.59900
O3339       O  0.52598533  0.62041863  0.50220375    -0.80100
O3340       O  0.62335941  0.00935519  0.98300067    -0.78800
C3341       C  0.53503975  0.54671716  0.91782267     0.83800
C3342       C  0.63335740  0.64400951  0.91512799     0.83400
O3343       O  0.63018192  0.52454643  0.92979954    -0.77700
C3344       C  0.68015369  0.61004738  0.50707456     0.84200
O3345       O  0.56257434  0.55939360  0.90706820    -0.77800
C3346       C  0.53747530  0.64690323  0.51607345     0.84300
C3347       C  0.57161646  0.55347480  0.56037678     0.84700
O3348       O  0.54881746  0.55179062  0.53778061    -0.80300
N3349       N  0.47937128  0.66742277  0.53423346    -0.02700
C3350       C  0.51352067  0.66897476  0.53537239    -0.00100
C3351       C  0.52266624  0.69431224  0.55710185    -0.23000
C3352       C  0.49317616  0.70903630  0.56850454    -0.23200
C3353       C  0.96677606  0.69239604  0.55339029    -0.00200
H3354       H  0.54792823  0.70188301  0.56340502     0.13500
H3355       H  0.49133759  0.73022368  0.58521294     0.13600
N3356       N  0.76326919  0.78107214  0.70446792    -0.02700
C3357       C  0.76262791  0.78414138  0.67046140    -0.00100
C3358       C  0.73864192  0.80768824  0.66193678    -0.23000
C3359       C  0.72359999  0.81813950  0.69155256    -0.23200
C3360       C  0.73883106  0.80077751  0.71744270    -0.00200
H3361       H  0.73250014  0.81621081  0.63695341     0.13500
H3362       H  0.70337356  0.83605231  0.69379631     0.13600
N3363       N  0.65089937  0.95203504  0.91909922    -0.02700
C3364       C  0.64804893  0.91806083  0.92046000    -0.00100
C3365       C  0.62423847  0.90980963  0.94433339    -0.23000
C3366       C  0.61345911  0.93960335  0.95866747    -0.23200
C3367       C  0.63077501  0.96531816  0.94301830    -0.00200
H3368       H  0.61588085  0.88493090  0.95097993     0.13500
H3369       H  0.59546122  0.94208685  0.97882932     0.13600
C3370       C  0.87561533  0.57425598  0.77995375     0.81000
N3371       N  0.90260606  0.57733621  0.80015182    -0.77300
C3372       C  0.90653660  0.55678512  0.82680626     0.83400
N3373       N  0.88684337  0.52942822  0.82936591    -0.77300
C3374       C  0.85969879  0.52590813  0.80943148     0.83500
N3375       N  0.85573487  0.54705440  0.78325743    -0.79000
O3376       O  0.88254519  0.69995458  0.65672823    -0.77800
C3377       C  0.87859899  0.80993573  0.61087467     0.83300
O3378       O  0.77624933  0.76369424  0.61485266    -0.78900
O3379       O  0.85183798  0.75161681  0.51158942    -0.80400
O3380       O  0.90762316  0.67896844  0.55507618    -0.80200
O3381       O  0.87067963  0.65678926  0.62306976    -0.78800
Zn3382     Zn  0.85659452  0.74030746  0.63357579     1.55700
O3383       O  0.92236518  0.73233408  0.56088463    -0.80200
Cd3384     Cd  0.85906620  0.68001743  0.57764853     1.59700
Cd3385     Cd  0.79927539  0.73675195  0.57457312     1.59600
O3386       O  0.81815283  0.65748588  0.55046196    -0.80200
O3387       O  0.84619420  0.72676969  0.58825398    -1.90700
Cd3388     Cd  0.87424436  0.75399692  0.55928524     1.59900
O3389       O  0.77542845  0.69170684  0.56248832    -0.80100
O3390       O  0.87300467  0.80198799  0.58039654    -0.78800
C3391       C  0.78459636  0.76553761  0.64596280     0.83800
C3392       C  0.88394880  0.66845658  0.64981394     0.83400
O3393       O  0.88027789  0.78729261  0.63368418    -0.77700
C3394       C  0.93032312  0.70169320  0.55635808     0.84200
O3395       O  0.81220555  0.75295917  0.65651130    -0.77800
C3396       C  0.78669950  0.66501052  0.54891173     0.84300
C3397       C  0.82123520  0.75715566  0.00378197     0.84700
O3398       O  0.79862523  0.75970653  0.52654141    -0.80300
N3399       N  0.90005442  0.61036596  0.67084004    -0.02700
C3400       C  0.90260332  0.64431530  0.67220349    -0.00100
C3401       C  0.92604554  0.65262065  0.69631732    -0.23000
C3402       C  0.93723924  0.62273981  0.71038191    -0.23200
C3403       C  0.92024138  0.59698922  0.69461014    -0.00200
H3404       H  0.93394100  0.67753528  0.70325429     0.13500
H3405       H  0.95525352  0.62022447  0.73048117     0.13600
N3406       N  0.57240093  0.89512322  0.78401040    -0.02700
C3407       C  0.53822111  0.89374277  0.78562960    -0.00100
C3408       C  0.52911722  0.86897216  0.80818370    -0.23000
C3409       C  0.55854951  0.85427698  0.81960338    -0.23200
C3410       C  0.58489497  0.87039801  0.80372385    -0.00200
H3411       H  0.00386593  0.86171848  0.81500516     0.13500
H3412       H  0.56038250  0.83338482  0.83678553     0.13600
N3413       N  0.78717287  0.77961680  0.95474061    -0.02700
C3414       C  0.78818125  0.77720115  0.92065165    -0.00100
C3415       C  0.81265416  0.75421713  0.91191333    -0.23000
C3416       C  0.82754275  0.74333054  0.94143018    -0.23200
C3417       C  0.81174991  0.75986141  0.96747566    -0.00200
H3418       H  0.81942759  0.74657037  0.88682269     0.13500
H3419       H  0.84817445  0.72585763  0.94350661     0.13600
C3420       C  0.67757986  0.98736576  0.52801900     0.81000
N3421       N  0.65088742  0.98366462  0.54855699    -0.77300
C3422       C  0.64720440  0.00351582  0.57567508     0.83400
N3423       N  0.66743943  0.53041483  0.57905191    -0.77300
C3424       C  0.69355579  0.53526656  0.55785857     0.83500
N3425       N  0.69690524  0.01495208  0.53102234    -0.79000
O3426       O  0.52410837  0.51259416  0.69935604    -0.77800
C3427       C  0.98032112  0.50810545  0.81017486     0.83300
O3428       O  0.98278807  0.90696269  0.76405895    -0.78900
O3429       O  0.87937139  0.98189370  0.75368514    -0.80400
O3430       O  0.92140765  0.53824929  0.68032992    -0.80200
O3431       O  0.98943225  0.50180160  0.65663101    -0.78800
Zn3432     Zn  0.00154273  0.98669693  0.74011907     1.55700
O3433       O  0.92831492  0.55214726  0.73385777    -0.80200
Cd3434     Cd  0.94442456  0.49005369  0.68056672     1.59700
Cd3435     Cd  0.94263896  0.92960442  0.73633018     1.59600
O3436       O  0.91744995  0.94948508  0.65762320    -0.80200
O3437       O  0.95587462  0.97657761  0.72712282    -1.90700
Cd3438     Cd  0.92731459  0.50403289  0.75527523     1.59900
O3439       O  0.93181727  0.90644461  0.69063686    -0.80100
O3440       O  0.94965021  0.50236109  0.80285373    -0.78800
C3441       C  0.01395209  0.91528466  0.76611496     0.83800
C3442       C  0.51658127  0.51451775  0.66795421     0.83400
O3443       O  0.00257149  0.51036320  0.78699549    -0.77700
C3444       C  0.92308885  0.56051786  0.70336547     0.84200
O3445       O  0.02467343  0.94256250  0.75304845    -0.77800
C3446       C  0.91735350  0.91793167  0.66437066     0.84300
C3447       C  0.87143174  0.95111929  0.75746531     0.84700
O3448       O  0.89404324  0.92829803  0.75817909    -0.80300
C3449       C  0.77158316  0.80607146  0.97272085    -0.00600
C3450       C  0.79141644  0.83233402  0.98382512    -0.08600
C3451       C  0.77692723  0.86182958  0.99441006    -0.17400
C3452       C  0.74176818  0.86532503  0.99452231     0.05000
C3453       C  0.72171246  0.83668267  0.98807218     0.19200
C3454       C  0.73685930  0.80714506  0.97696002    -0.18800
C3455       C  0.68688104  0.83820142  0.99189058    -0.20100
C3456       C  0.67159530  0.86796578  0.00137651    -0.18600
C3457       C  0.69066464  0.89712479  0.00508485     0.20600
C3458       C  0.72597388  0.89624078  0.00095063     0.02700
C3459       C  0.74401087  0.92633551  0.50223478    -0.13400
C3460       C  0.72794158  0.95609988  0.50951652    -0.11100
C3461       C  0.69325613  0.95681606  0.51516564     0.02200
C3462       C  0.67472265  0.92715193  0.51288144    -0.23300
H3463       H  0.81824853  0.83015213  0.98319641     0.10200
H3464       H  0.79379792  0.88133669  0.00231863     0.13800
H3465       H  0.72178551  0.78576060  0.96982686     0.12500
H3466       H  0.67146938  0.81629863  0.98765620     0.13700
H3467       H  0.64463704  0.86843296  0.00481985     0.12700
H3468       H  0.77054180  0.92790341  0.49720814     0.09800
H3469       H  0.74300880  0.97855415  0.51102362     0.13100
H3470       H  0.64797840  0.92739831  0.51774929     0.15000
C3471       C  0.63292902  0.98863830  0.60615573    -0.00600
C3472       C  0.62501935  0.95450806  0.60663543    -0.08600
C3473       C  0.61714728  0.93859563  0.63641792    -0.17400
C3474       C  0.61739814  0.95633642  0.66686024     0.05000
C3475       C  0.62304940  0.99130046  0.66615463     0.19200
C3476       C  0.63159298  0.00697092  0.63600638    -0.18800
C3477       C  0.62032206  0.01017312  0.69555558    -0.20100
C3478       C  0.61068196  0.99499074  0.72544753    -0.18600
C3479       C  0.60604278  0.96035761  0.72686659     0.20600
C3480       C  0.61138371  0.94049206  0.69787656     0.02700
C3481       C  0.61090448  0.90543477  0.70114383    -0.13400
C3482       C  0.60093693  0.89093442  0.73091995    -0.11100
C3483       C  0.59067454  0.91062264  0.75761070     0.02200
C3484       C  0.59527068  0.94520355  0.75664175    -0.23300
H3485       H  0.62561922  0.93964038  0.58401001     0.10200
H3486       H  0.61056658  0.91248843  0.63479269     0.13800
H3487       H  0.63789703  0.53333883  0.63596544     0.12500
H3488       H  0.62470139  0.53693686  0.69521506     0.13700
H3489       H  0.60723631  0.01027505  0.74757012     0.12700
H3490       H  0.61808724  0.88870409  0.68122331     0.09800
H3491       H  0.59980692  0.86422760  0.73298651     0.13100
H3492       H  0.58864730  0.96016747  0.77827482     0.15000
C3493       C  0.87296582  0.59342631  0.65539983    -0.00600
C3494       C  0.87599329  0.58144288  0.62281674    -0.08600
C3495       C  0.84738985  0.57221015  0.60511000    -0.17400
C3496       C  0.81516524  0.57533665  0.61984361     0.05000
C3497       C  0.81301598  0.58636597  0.65358817     0.19200
C3498       C  0.84188836  0.59481430  0.67097461    -0.18800
C3499       C  0.78205143  0.59031529  0.66943231    -0.20100
C3500       C  0.75270854  0.58360283  0.65239464    -0.18600
C3501       C  0.75388013  0.57235980  0.61934185     0.20600
C3502       C  0.78500993  0.56828954  0.60241262     0.02700
C3503       C  0.78452270  0.55700470  0.56896690    -0.13400
C3504       C  0.75446715  0.54839334  0.55369964    -0.11100
C3505       C  0.72402133  0.55112104  0.57106086     0.02200
C3506       C  0.72397151  0.56390765  0.60360717    -0.23300
H3507       H  0.90027978  0.58094904  0.61062769     0.10200
H3508       H  0.85127857  0.56382776  0.57978769     0.13800
H3509       H  0.84025880  0.60501672  0.69594725     0.12500
H3510       H  0.78052523  0.59877393  0.69510205     0.13700
H3511       H  0.72897049  0.58681637  0.66528860     0.12700
H3512       H  0.80688777  0.55373354  0.55417265     0.09800
H3513       H  0.75534318  0.53842836  0.52852719     0.13100
H3514       H  0.70061080  0.56614353  0.61739305     0.15000
C3515       C  0.67853043  0.96898636  0.90442085    -0.00600
C3516       C  0.70721067  0.97294943  0.92356397    -0.08600
C3517       C  0.73702382  0.98257550  0.90890135    -0.17400
C3518       C  0.73876226  0.98809945  0.87406141     0.05000
C3519       C  0.70859473  0.98717944  0.85510484     0.19200
C3520       C  0.67856697  0.97740975  0.87049538    -0.18800
C3521       C  0.70887149  0.49546252  0.82109082    -0.20100
C3522       C  0.73873242  0.50434946  0.80541320    -0.18600
C3523       C  0.76899008  0.50361184  0.82316839     0.18600
C3524       C  0.76943294  0.99459850  0.85757157     0.02700
C3525       C  0.80058186  0.99192517  0.87403299    -0.13400
C3526       C  0.83000015  0.50031710  0.85759429    -0.11100
C3527       C  0.82943084  0.51111496  0.82421056     0.02200
C3528       C  0.79884879  0.51220554  0.80697013    -0.23300
H3529       H  0.70657601  0.96692393  0.94975890     0.10200
H3530       H  0.75816192  0.98517904  0.92546647     0.13800
H3531       H  0.65577132  0.97459282  0.85600203     0.12500
H3532       H  0.68590020  0.49522452  0.80660475     0.13700
H3533       H  0.73827833  0.51118288  0.77913064     0.12700
H3534       H  0.80320451  0.98314456  0.89942394     0.09800
H3535       H  0.85318135  0.99906278  0.87176568     0.13100
H3536       H  0.79807963  0.52063983  0.78116383     0.15000
C3537       C  0.86072714  0.60509534  0.76667622    -0.00600
C3538       C  0.87990644  0.63429726  0.76462775    -0.08600
C3539       C  0.86512488  0.66464336  0.75636014    -0.17400
C3540       C  0.83017429  0.66693416  0.75137309     0.05000
C3541       C  0.81061779  0.63742675  0.75487187     0.19200
C3542       C  0.82603739  0.60688428  0.76161605    -0.18800
C3543       C  0.77568792  0.63857927  0.75231643    -0.20100
C3544       C  0.75966071  0.66844430  0.74530866    -0.18600
C3545       C  0.77833958  0.69754515  0.74020168     0.20600
C3546       C  0.81385330  0.69742633  0.74337858     0.02700
C3547       C  0.83142084  0.72767479  0.73755569    -0.13400
C3548       C  0.81439410  0.75621664  0.72712714    -0.11100
C3549       C  0.77984521  0.75505145  0.72216587     0.02200
C3550       C  0.76178913  0.72650438  0.73031156    -0.23300
H3551       H  0.90644804  0.63389311  0.77025593     0.10200
H3552       H  0.88162446  0.68593208  0.75518469     0.13800
H3553       H  0.81059983  0.58471441  0.76423118     0.12500
H3554       H  0.76068519  0.61619717  0.75558947     0.13700
H3555       H  0.73258022  0.66860608  0.74305468     0.12700
H3556       H  0.85828469  0.72978458  0.73939031     0.09800
H3557       H  0.82831433  0.77864671  0.72088405     0.13100
H3558       H  0.73496772  0.72644958  0.72671217     0.15000
C3559       C  0.96119446  0.65119966  0.00873296    -0.00600
C3560       C  0.95500076  0.61696601  0.01027273    -0.08600
C3561       C  0.94440416  0.60015143  0.98169699    -0.17400
C3562       C  0.94008242  0.61761995  0.95106904     0.05000
C3563       C  0.94425947  0.65291872  0.95097091     0.19200
C3564       C  0.95414669  0.66924184  0.97990738    -0.18800
C3565       C  0.94041150  0.67158426  0.92165216    -0.20100
C3566       C  0.93383385  0.65572915  0.89170403    -0.18600
C3567       C  0.93046606  0.62099323  0.89070934     0.20600
C3568       C  0.93285195  0.60142030  0.92037726     0.02700
C3569       C  0.92802663  0.56655770  0.91791579    -0.13400
C3570       C  0.92071189  0.55192811  0.88726558    -0.11100
C3571       C  0.91914467  0.57128033  0.85805973     0.02200
C3572       C  0.92414933  0.60583023  0.86007034    -0.23300
H3573       H  0.46023939  0.60312045  0.53274218     0.10200
H3574       H  0.94130000  0.57350000  0.98407044     0.13800
H3575       H  0.95895992  0.69579127  0.97960239     0.12500
H3576       H  0.94332191  0.69850110  0.92171509     0.13700
H3577       H  0.93156046  0.67070876  0.86914808     0.12700
H3578       H  0.92890311  0.54999402  0.93921125     0.09800
H3579       H  0.91537702  0.52540857  0.88663028     0.13100
H3580       H  0.92212693  0.62136127  0.83786488     0.15000
C3581       C  0.84156749  0.90024069  0.80506284    -0.00600
C3582       C  0.85218644  0.91965130  0.83179473    -0.08600
C3583       C  0.86246736  0.90478058  0.86115394    -0.17400
C3584       C  0.86251617  0.86973006  0.86400061     0.05000
C3585       C  0.85766647  0.85015168  0.83481165     0.19200
C3586       C  0.84661416  0.86564799  0.80531898    -0.18800
C3587       C  0.86266299  0.81551454  0.83602002    -0.20100
C3588       C  0.87164609  0.80013756  0.86607959    -0.18600
C3589       C  0.87309176  0.81881977  0.89572519     0.20600
C3590       C  0.86713872  0.85370034  0.89499241     0.02700
C3591       C  0.86454657  0.87124300  0.92538200    -0.13400
C3592       C  0.87093739  0.85539493  0.95539687    -0.11100
C3593       C  0.87980494  0.82150976  0.95614281     0.02200
C3594       C  0.88038623  0.80317267  0.92619579    -0.23300
H3595       H  0.85082802  0.94642299  0.83020869     0.10200
H3596       H  0.86992214  0.92115209  0.88127575     0.13800
H3597       H  0.83995394  0.85095019  0.78354462     0.12500
H3598       H  0.85979453  0.80039843  0.81371540     0.13700
H3599       H  0.87611692  0.77341121  0.86642118     0.12700
H3600       H  0.85707517  0.89715046  0.92671160     0.09800
H3601       H  0.86960259  0.87015960  0.97806833     0.13100
H3602       H  0.88717258  0.77693673  0.92645679     0.15000
C3603       C  0.97182142  0.76385669  0.99057857    -0.00600
C3604       C  0.50129006  0.76343115  0.00955310    -0.08600
C3605       C  0.53189119  0.75563206  0.99483355    -0.17400
C3606       C  0.53402893  0.74880159  0.96023179     0.05000
C3607       C  0.50404890  0.74968071  0.94102036     0.19200
C3608       C  0.97346095  0.75678552  0.95630098    -0.18800
C3609       C  0.00473485  0.74414660  0.90648909    -0.20100
C3610       C  0.53469477  0.73704114  0.89056170    -0.18600
C3611       C  0.56436862  0.73480970  0.90894467     0.20600
C3612       C  0.56473772  0.74107255  0.94397124     0.02700
C3613       C  0.59570672  0.73842202  0.96117000    -0.13400
C3614       C  0.62448657  0.72777846  0.94447299    -0.11100
C3615       C  0.62292305  0.71990161  0.91054219     0.02200
C3616       C  0.59350502  0.72477485  0.89270174    -0.23300
H3617       H  0.50090684  0.77008705  0.03581463     0.10200
H3618       H  0.55340050  0.75590290  0.01110599     0.13800
H3619       H  0.95103621  0.75791578  0.94101826     0.12500
H3620       H  0.98195579  0.74524160  0.89172708     0.13700
H3621       H  0.53457621  0.73267926  0.86380863     0.12700
H3622       H  0.59829523  0.74309718  0.98759233     0.09800
H3623       H  0.64753763  0.72393629  0.95828162     0.13100
H3624       H  0.59307729  0.71850254  0.86646377     0.15000
C3625       C  0.93874238  0.85665583  0.54607005    -0.00600
C3626       C  0.91987630  0.88614890  0.54730841    -0.08600
C3627       C  0.93508738  0.91653397  0.55474134    -0.17400
C3628       C  0.97001579  0.91837111  0.56028500     0.05000
C3629       C  0.48914057  0.88849696  0.55771090     0.19200
C3630       C  0.97342540  0.85816437  0.55113853    -0.18800
C3631       C  0.52394809  0.88890985  0.56159141    -0.20100
C3632       C  0.54022968  0.91830556  0.56953376    -0.18600
C3633       C  0.52196598  0.94777426  0.57376270     0.20600
C3634       C  0.48668532  0.94857143  0.56865864     0.02700
C3635       C  0.96966343  0.97932431  0.57335206    -0.13400
C3636       C  0.48684034  0.00735534  0.58489798    -0.11100
C3637       C  0.52104484  0.00521695  0.59171253     0.02200
C3638       C  0.53866158  0.97618639  0.58467223    -0.23300
H3639       H  0.89325787  0.88586692  0.54198087     0.10200
H3640       H  0.91890571  0.93809326  0.55545706     0.13800
H3641       H  0.48876187  0.83588171  0.04870243     0.12500
H3642       H  0.53862587  0.86623790  0.55897389     0.13700
H3643       H  0.56714347  0.91779586  0.57319520     0.12700
H3644       H  0.94306352  0.98219830  0.56965148     0.09800
H3645       H  0.97324606  0.03018881  0.59023471     0.13100
H3646       H  0.56517586  0.97542041  0.58979934     0.15000
C3647       C  0.57966346  0.80060438  0.74046315    -0.00600
C3648       C  0.54991750  0.80108519  0.75910100    -0.08600
C3649       C  0.51975491  0.80997080  0.74416364    -0.17400
C3650       C  0.51843870  0.81804767  0.70976003     0.05000
C3651       C  0.54898237  0.81906588  0.69140064     0.19200
C3652       C  0.57899731  0.81009537  0.70669489    -0.18800
C3653       C  0.54940676  0.82824672  0.65762688    -0.20100
C3654       C  0.51983349  0.83620228  0.64143340    -0.18600
C3655       C  0.98933450  0.83463265  0.65858532     0.20600
C3656       C  0.98797439  0.82502733  0.69285075     0.02700
C3657       C  0.95614787  0.82272252  0.70852455    -0.13400
C3658       C  0.92718946  0.83173887  0.69127924    -0.11100
C3659       C  0.92946405  0.84297887  0.65832978     0.02200
C3660       C  0.96013598  0.84352913  0.64184651    -0.23300
H3661       H  0.54968756  0.79352470  0.78516007     0.10200
H3662       H  0.99795293  0.80986654  0.76012796     0.13800
H3663       H  0.60184037  0.80997342  0.69191189     0.12500
H3664       H  0.57272925  0.82923155  0.64365238     0.13700
H3665       H  0.52076220  0.84330011  0.61528666     0.12700
H3666       H  0.95282862  0.81462565  0.73406281     0.09800
H3667       H  0.90320992  0.83165986  0.70406843     0.13100
H3668       H  0.96120839  0.85289822  0.61649049     0.15000
C3669       C  0.61129163  0.70711332  0.79819383    -0.00600
C3670       C  0.63013940  0.67766248  0.79976946    -0.08600
C3671       C  0.61499767  0.64740873  0.80764484    -0.17400
C3672       C  0.58012163  0.64560631  0.81339011     0.05000
C3673       C  0.56112485  0.67566059  0.81205258     0.19200
C3674       C  0.57674743  0.70588445  0.80443207    -0.18800
C3675       C  0.52658675  0.67543002  0.81808694    -0.20100
C3676       C  0.51054349  0.64594761  0.82657502    -0.18600
C3677       C  0.52864314  0.61609642  0.82836301     0.20600
C3678       C  0.56347385  0.61517172  0.82084974     0.02700
C3679       C  0.58011426  0.58385960  0.82171183    -0.13400
C3680       C  0.56329496  0.55527166  0.83241858    -0.11100
C3681       C  0.52979790  0.55739992  0.84202431     0.02200
C3682       C  0.51230982  0.58722802  0.83880824    -0.23300
H3683       H  0.65669079  0.67779881  0.79405033     0.10200
H3684       H  0.63129184  0.62595739  0.80880032     0.13800
H3685       H  0.56166117  0.72838723  0.80275205     0.12500
H3686       H  0.51197681  0.69825867  0.81672382     0.13700
H3687       H  0.48390897  0.64652261  0.83196575     0.12700
H3688       H  0.60611115  0.58073407  0.81506383     0.09800
H3689       H  0.57671197  0.53182790  0.83476646     0.13100
H3690       H  0.48636795  0.58806427  0.84636149     0.15000
C3691       C  0.66954803  0.73894206  0.70612577    -0.00600
C3692       C  0.67528546  0.70439127  0.70507921    -0.08600
C3693       C  0.68105681  0.68853276  0.67488311    -0.17400
C3694       C  0.68155506  0.70691266  0.64475066     0.05000
C3695       C  0.67856659  0.74215268  0.64601784     0.19200
C3696       C  0.67130440  0.75770480  0.67645450    -0.18800
C3697       C  0.68299912  0.76138374  0.61694135    -0.20100
C3698       C  0.69245741  0.74615090  0.58705333    -0.18600
C3699       C  0.69465980  0.71128535  0.58521471     0.20600
C3700       C  0.68653421  0.69136357  0.61356164     0.02700
C3701       C  0.68388762  0.65651983  0.60965656    -0.13400
C3702       C  0.69480172  0.64170418  0.58044417    -0.11100
C3703       C  0.70895607  0.66101263  0.55507493     0.02200
C3704       C  0.70618484  0.69583509  0.55595278    -0.23300
H3705       H  0.67423353  0.68916464  0.72752186     0.10200
H3706       H  0.68578643  0.66197074  0.67587815     0.13800
H3707       H  0.66643743  0.78433796  0.67691324     0.12500
H3708       H  0.68053630  0.78834543  0.61766480     0.13700
H3709       H  0.69785499  0.76158294  0.56534960     0.12700
H3710       H  0.67389682  0.64029093  0.62888285     0.09800
H3711       H  0.69376339  0.61493064  0.57809525     0.13100
H3712       H  0.71517992  0.71062711  0.53499329     0.15000
loop_ 
_geom_bond_atom_site_label_1 
_geom_bond_atom_site_label_2 
_geom_bond_distance 
_geom_bond_site_symmetry_2 
_ccdc_geom_bond_type 
N1            C5   1.357       .  A
N1            C2   1.368       .  A
N1          C455   1.424       .  S
C2            C3   1.385       .  A
C2          C148   1.514       .  S
C3            C4   1.389   1_554  A
C3            H6   1.082       .  S
C4            C5   1.384   1_556  A
C4          H471   1.082       .  S
C5           C96   1.503       .  S
H7          C468   1.082       .  S
N8            C9   1.363       .  A
N8         C1868   1.356   1_455  A
N8          C433   1.418       .  S
C9           C10   1.384   1_455  A
C9           C93   1.509       .  S
C10        C1867   1.390   1_545  A
C10         H941   1.082   1_545  S
C11          C12   1.385   1_565  A
C11        C1866   1.390   1_565  A
C11         H942   1.082       .  S
C12        N1864   1.356       .  A
C12         C179   1.504       .  S
H13         C938   1.082       .  S
H14         C939   1.082       .  S
N15          C19   1.355       .  A
N15          C16   1.362       .  A
N15         C411   1.418       .  S
C16          C17   1.384       .  A
C16         C198   1.510       .  S
C17          C18   1.392       .  A
C17          H20   1.082       .  S
C18          C19   1.386       .  A
C18          H21   1.082       .  S
C19         C129   1.504       .  S
C22          N23   1.353       .  A
C22          N27   1.352       .  A
C22         C399   1.467       .  S
N23          C24   1.351       .  A
C24          N25   1.352       .  A
C24         C443   1.466       .  S
N25          C26   1.351       .  A
C26          N27   1.352       .  A
C26         C421   1.466       .  S
O28          C44   1.292       .  A
O28         Zn34   2.130       .  S
C29          C62   1.502       .  S
C29          O45   1.284       .  A
C29          O42   1.278       .  A
O30          C43   1.289       .  A
O30         Cd37   2.146       .  S
O31          C49   1.280       .  A
O31         Cd40   2.107       .  S
O32          C46   1.283       .  A
O32         Cd36   2.128       .  S
O33          C44   1.279       .  A
O33         Cd36   2.081       .  S
Zn34         O45   2.099       .  S
Zn34         O47   2.057       .  S
Zn34         O39   1.935       .  S
O35          C46   1.279       .  A
O35         Cd40   2.106       .  S
Cd36         O38   2.148       .  S
Cd36         O39   1.984       .  S
Cd37         O41   2.098       .  S
Cd37         O50   2.127       .  S
Cd37         O39   1.988       .  S
O38          C48   1.290       .  A
O39         Cd40   1.940       .  S
Cd40         O42   2.096       .  S
O41          C48   1.281       .  A
C43         C166   1.511       .  S
C43          O47   1.282       .  A
C44         C116   1.510       .  S
C46         C162   1.503       .  S
C48          C66   1.511       .  S
C49         C112   1.502       .  S
C49          O50   1.283       .  A
N51          C55   1.356       .  A
N51          C52   1.364       .  A
N51        C1317   1.421       .  S
C52          C53   1.384       .  A
C52         C194   1.509       .  S
C53          C54   1.390       .  A
C53          H56   1.082       .  S
C54          C55   1.385       .  A
C54          H57   1.082       .  S
C55          C99   1.503       .  S
N58          C62   1.355       .  A
N58          C59   1.364       .  A
N58         C367   1.421       .  S
C59          C60   1.384       .  A
C59          C94   1.507       .  S
C60          C61   1.390       .  A
C60          H63   1.082       .  S
C61          C62   1.385       .  A
C61          H64   1.082       .  S
N65          C69   1.357       .  A
N65          C66   1.366       .  A
N65         C333   1.420       .  S
C66          C67   1.385       .  A
C67          C68   1.389       .  A
C67          H70   1.082       .  S
C68          C69   1.384       .  A
C68          H71   1.082       .  S
C69         C199   1.503       .  S
C72          N73   1.352       .  A
C72         N541   1.350       .  A
C72         C377   1.468       .  S
N73         C538   1.352       .  A
C74          N75   1.353       .  A
C74         N537   1.352       .  A
C74         C355   1.468       .  S
N75          C76   1.352       .  A
C76          N77   1.353       .  A
C76         C345   1.466       .  S
N77         C536   1.350       .  A
O78          C94   1.292       .  A
O78         Zn84   2.126       .  S
C79         C119   1.504       .  S
C79          O92   1.278       .  A
C79        O1023   1.285       .  A
O80          C93   1.290       .  A
O80        Cd551   2.148       .  S
O81          C99   1.280       .  A
O81         Cd90   2.107       .  S
O82          C96   1.282       .  A
O82        Cd550   2.121   1_554  S
O83          C94   1.279       .  A
O83         Cd86   2.078       .  S
Zn84         O95   2.104       .  S
Zn84         O97   2.056       .  S
Zn84         O89   1.937       .  S
O85          C96   1.279       .  A
O85         Cd90   2.108       .  S
Cd86        O546   2.121       .  S
Cd86        O552   2.146       .  S
Cd86         O89   1.984       .  S
Cd87         O91   2.101   1_556  S
Cd87        O100   2.129   1_556  S
Cd87        O544   2.148       .  S
Cd87        O553   1.983       .  S
O88          C98   1.288       .  A
O88        Cd550   2.146   1_554  S
O89        Cd551   1.983       .  S
O89        Cd554   1.942       .  S
Cd90       O1484   2.098   1_554  S
Cd90        O553   1.942   1_554  S
O91          C98   1.282       .  A
O92       Cd1482   2.097       .  S
C93          O97   1.282       .  A
O95        C1007   1.285       .  A
C98         C102   1.512       .  S
C99         O100   1.283       .  A
N101        C102   1.364   1_655  A
N101       C1961   1.355       .  A
N101       C2631   1.417       .  S
C102        C103   1.385       .  A
C103        C104   1.391   1_455  A
C103        H106   1.082       .  S
C104       C1961   1.385       .  A
C104        H107   1.082       .  S
C105       N1957   1.355       .  A
C105       C1960   1.385       .  A
C105        C146   1.505       .  S
N108        C112   1.356       .  A
N108        C109   1.363       .  A
N108        C301   1.420       .  S
C109        C110   1.384       .  A
C109        C143   1.510       .  S
C110        C111   1.390       .  A
C110        H113   1.082       .  S
C111        C112   1.385       .  A
C111        H114   1.082       .  S
N115        C119   1.356       .  A
N115        C116   1.364       .  A
N115        C267   1.419       .  S
C116        C117   1.384       .  A
C117        C118   1.391       .  A
C117        H120   1.082       .  S
C118        C119   1.386       .  A
C118        H121   1.082       .  S
C122        N123   1.352       .  A
C122        N127   1.352       .  A
C122        C289   1.466       .  S
N123        C124   1.352       .  A
C124        N125   1.350       .  A
C124        C323   1.467       .  S
N125        C126   1.352       .  A
C126        N127   1.352       .  A
C126        C279   1.466       .  S
O128        C144   1.292       .  A
O128       Zn134   2.128       .  S
C129        O145   1.284       .  A
C129        O142   1.278       .  A
O130        C143   1.289       .  A
O130       Cd137   2.143       .  S
O131        C613   1.279       .  A
O131       Cd140   2.107       .  S
O132        C146   1.284       .  A
O132       Cd136   2.134       .  S
O133        C144   1.281       .  A
O133       Cd136   2.087       .  S
Zn134       O145   2.104       .  S
Zn134       O147   2.056       .  S
Zn134       O139   1.935       .  S
O135        C146   1.279       .  A
O135       Cd140   2.106       .  S
Cd136       O138   2.159       .  S
Cd136       O139   1.985       .  S
Cd137       O141   2.095       .  S
Cd137       O150   2.124       .  S
Cd137       O139   1.989       .  S
O138        C148   1.291       .  A
O139       Cd140   1.940       .  S
Cd140       O142   2.098       .  S
O141        C148   1.280       .  A
C143        O147   1.281       .  A
C144        C152   1.510       .  S
C149        C169   1.502       .  S
C149        O595   1.279       .  A
C149        O614   1.282       .  A
O150        C613   1.282       .  A
N151        C155   1.354       .  A
N151        C152   1.363       .  A
N151        C245   1.418       .  S
C152        C153   1.384       .  A
C153        C154   1.393       .  A
C153        H156   1.082       .  S
C154        C155   1.386       .  A
C154        H157   1.082       .  S
C155        C196   1.503       .  S
N158        C162   1.357       .  A
N158        C159   1.365       .  A
N158        C235   1.421       .  S
C159        C160   1.385       .  A
C159       C2049   1.512       .  S
C160        C161   1.389       .  A
C160       H2019   1.082       .  S
C161        C162   1.385       .  A
C161        H164   1.082       .  S
H163       C2016   1.082       .  S
N165        C169   1.357       .  A
N165        C166   1.365       .  A
N165        C201   1.422       .  S
C166        C167   1.385       .  A
C167        C168   1.389       .  A
C167        H170   1.082       .  S
C168        C169   1.384       .  A
C168        H171   1.082       .  S
C172        N173   1.350       .  A
C172        N177   1.351       .  A
C172        C213   1.466       .  S
N173        C174   1.352       .  A
C174       N1103   1.353       .  A
C174        C223   1.467       .  S
N175        C176   1.354       .  A
N175       C1102   1.353       .  A
C176       N1105   1.352       .  A
C176        C257   1.469       .  S
N177       C1104   1.352       .  A
O178        C194   1.292       .  A
O178      Zn2968   2.124   1_545  S
C179        O195   1.284       .  A
C179        O192   1.279       .  A
O180        C193   1.289       .  A
O180       Cd187   2.147       .  S
O181        C199   1.279       .  A
O181      Cd1118   2.107       .  S
O182        C196   1.284       .  A
O182       Cd186   2.134   1_545  S
O183       C2050   1.280       .  A
O183       Cd186   2.085   1_545  S
Zn184       O197   2.056       .  S
Zn184      O2962   2.124       .  S
Zn184      O1123   2.099       .  S
Zn184       O189   1.937       .  S
O185        C196   1.279       .  A
O185       Cd190   2.104       .  S
Cd186      O1116   2.153       .  S
Cd186      O1117   1.987       .  S
Cd187       O191   2.094       .  S
Cd187       O200   2.125       .  S
Cd187       O189   1.984       .  S
O188        C198   1.289       .  A
O188      Cd1114   2.152       .  S
O189      Cd1114   1.987       .  S
O189      Cd1118   1.941       .  S
Cd190       O192   2.100       .  S
Cd190      O1109   2.107   1_545  S
Cd190      O1117   1.941   1_545  S
O191        C198   1.282       .  A
C193       C2015   1.512       .  S
C193        O197   1.281       .  A
C194       O2039   1.280   1_455  A
O195      Zn1112   2.099   1_545  S
C199        O200   1.283       .  A
C201        C202   1.389       .  A
C201        C206   1.395       .  A
C202        C203   1.380       .  A
C202        H215   1.073       .  S
C203        C204   1.409       .  A
C203        H216   1.078       .  S
C204        C210   1.411       .  A
C204        C205   1.421       .  A
C205        C207   1.398       .  A
C205        C206   1.399       .  A
C206        H217   1.084       .  S
C207        C208   1.390       .  A
C207        H218   1.084       .  S
C208        C209   1.401       .  A
C208        H219   1.084       .  S
C209        C210   1.417       .  A
C209        C678   1.397       .  A
C210        C675   1.410       .  A
C211        C212   1.383       .  A
C211        C674   1.410       .  A
C211        H220   1.078   1_554  S
C212        C213   1.401       .  A
C212        H221   1.082       .  S
C213        C214   1.401       .  A
C214        C673   1.397       .  A
C214        H222   1.084       .  S
C223        C224   1.401       .  A
C223        C228   1.402       .  A
C224        C225   1.383       .  A
C224        H237   1.083       .  S
C225        C226   1.409       .  A
C225        H238   1.079       .  S
C226        C232   1.410       .  A
C226        C227   1.416       .  A
C227        C229   1.401       .  A
C227        C228   1.397       .  A
C228       H1167   1.083       .  S
C229        C230   1.391       .  A
C229       H1168   1.083       .  S
C230        C231   1.398       .  A
C230        H241   1.084       .  S
C231        C232   1.421       .  A
C231        C236   1.400       .  A
C232        C233   1.408       .  A
C233        C234   1.379       .  A
C233        H242   1.079       .  S
C234        C235   1.388       .  A
C234        H243   1.072       .  S
C235        C236   1.396       .  A
C236        H244   1.084       .  S
H239       C1156   1.083       .  S
H240       C1157   1.083       .  S
C245        C246   1.392       .  A
C245        C250   1.386       .  A
C246        C247   1.393       .  A
C246        H259   1.083       .  S
C247        C248   1.418       .  A
C247        H260   1.077       .  S
C248        C254   1.419       .  A
C248        C249   1.421       .  A
C249        C251   1.395       .  A
C249        C250   1.387       .  A
C250        H261   1.080       .  S
C251        C252   1.381       .  A
C251        H262   1.082       .  S
C252        C253   1.396       .  A
C252        H263   1.084       .  S
C253        C254   1.422       .  A
C253        C258   1.391       .  A
C254        C255   1.411       .  A
C255        C256   1.389       .  A
C255        H264   1.077       .  S
C256        C257   1.401       .  A
C256        H265   1.083       .  S
C257        C258   1.398       .  A
C258        H266   1.085       .  S
C267        C268   1.386       .  A
C267        C272   1.395       .  A
C268        C269   1.378       .  A
C268        H281   1.073       .  S
C269        C270   1.409       .  A
C269        H282   1.077       .  S
C270        C276   1.412       .  A
C270        C271   1.423       .  A
C271        C272   1.400       .  A
C271       C1201   1.398       .  A
C272        H283   1.084       .  S
C273        C274   1.390   1_565  A
C273       C1199   1.398       .  A
C273        H284   1.084       .  S
C274        C275   1.400       .  A
C274        H285   1.084       .  S
C275        C280   1.396       .  A
C275       C1204   1.418   1_545  A
C276        C277   1.410       .  A
C276       C1203   1.418       .  A
C277       C1206   1.381       .  A
C277        H286   1.077       .  S
C278        C279   1.400       .  A
C278       C1205   1.381   1_545  A
C278       H1215   1.083   1_545  S
C279        C280   1.402       .  A
C280        H288   1.084       .  S
H287       C1206   1.083       .  S
C289        C290   1.398       .  A
C289        C294   1.400       .  A
C290        C291   1.388       .  A
C290        H303   1.082       .  S
C291        C292   1.411       .  A
C291        H304   1.077       .  S
C292        C298   1.418       .  A
C292        C293   1.421       .  A
C293        C295   1.397       .  A
C293        C294   1.393       .  A
C294        H305   1.084       .  S
C295        C296   1.383       .  A
C295        H306   1.084       .  S
C296        C297   1.396       .  A
C296        H307   1.084       .  S
C297        C298   1.422       .  A
C297        C302   1.389       .  A
C298        C299   1.416       .  A
C299        C300   1.391       .  A
C299        H308   1.077       .  S
C300        C301   1.392       .  A
C300        H309   1.083       .  S
C301        C302   1.388       .  A
C302        H310   1.079       .  S
C311       N2421   1.418       .  S
C311        C312   1.392       .  A
C311        C316   1.386       .  A
C312        C313   1.392       .  A
C312       H2645   1.083       .  S
C313        C314   1.417       .  A
C313        H326   1.077       .  S
C314        C320   1.418       .  A
C314        C315   1.421       .  A
C315        C317   1.395       .  A
C315        C316   1.386       .  A
C316        H327   1.079       .  S
C317        C318   1.380       .  A
C317        H328   1.083       .  S
C318        C319   1.396       .  A
C318        H329   1.084       .  S
C319        C320   1.421       .  A
C319        C324   1.390       .  A
C320        C321   1.411       .  A
C321        C322   1.389       .  A
C321        H330   1.077       .  S
C322        C323   1.399       .  A
C322        H331   1.082       .  S
C323        C324   1.399       .  A
C324        H332   1.084       .  S
H325       C2632   1.083       .  S
C333        C334   1.388       .  A
C333        C338   1.398       .  A
C334        C335   1.376       .  A
C334        H347   1.074       .  S
C335        C336   1.406       .  A
C335        H348   1.080       .  S
C336        C342   1.405       .  A
C336        C337   1.419       .  A
C337        C339   1.400       .  A
C337        C338   1.401       .  A
C338        H349   1.084       .  S
C339        C340   1.394       .  A
C339        H350   1.084       .  S
C340        C341   1.402       .  A
C340        H351   1.084       .  S
C341        C342   1.415       .  A
C341        C346   1.397       .  A
C342        C343   1.407       .  A
C343        C344   1.378       .  A
C343        H352   1.079       .  S
C344        C345   1.401       .  A
C344        H353   1.083       .  S
C345        C346   1.404       .  A
C346        H354   1.083       .  S
C355        C360   1.400       .  A
C355       C2212   1.399       .  A
C356        C357   1.389       .  A
C356       C2211   1.399   1_455  A
C356        H369   1.082       .  S
C357        C358   1.411       .  A
C357        H370   1.077       .  S
C358        C364   1.419       .  A
C358        C359   1.422       .  A
C359       C2217   1.397       .  A
C359       C2216   1.392   1_455  A
C360       C2215   1.392       .  A
C360        H371   1.084       .  S
C361       C2215   1.397       .  A
C361       C2218   1.382       .  A
C361        H372   1.084       .  S
C362        C363   1.396       .  A
C362       C2217   1.382       .  A
C362        H373   1.083       .  S
C363        C364   1.421       .  A
C363        C368   1.389       .  A
C364        C365   1.417       .  A
C365        C366   1.393       .  A
C365        H374   1.077       .  S
C366        C367   1.393       .  A
C366        H375   1.083       .  S
C367        C368   1.387       .  A
C368        H376   1.078       .  S
C377        C378   1.400       .  A
C377        C382   1.399       .  A
C378        C379   1.391       .  A
C378        H391   1.083       .  S
C379        C380   1.412       .  A
C379        H392   1.077       .  S
C380       C2242   1.420       .  A
C380       C2237   1.421       .  A
C381        C383   1.397   1_655  A
C381       C2236   1.421       .  A
C381       C2238   1.391       .  A
C382       C2237   1.391       .  A
C382       H2713   1.084       .  S
C383        C384   1.381       .  A
C383        H394   1.084       .  S
C384        C385   1.396       .  A
C384        H395   1.083       .  S
C385        C386   1.422   1_455  A
C385        C390   1.389       .  A
C386       C2236   1.420       .  A
C386       C2243   1.417       .  A
C387       C2242   1.417       .  A
C387       C2244   1.394       .  A
C387        H396   1.077       .  S
C388        C389   1.394   1_655  A
C388       C2243   1.394       .  A
C388       H2253   1.083       .  S
C389        N979   1.421       .  S
C389        C390   1.386       .  A
C390        H398   1.078       .  S
H393       C2702   1.084       .  S
H397       C2244   1.083       .  S
C399        C400   1.399       .  A
C399        C404   1.400       .  A
C400        C401   1.389       .  A
C400        H413   1.083       .  S
C401        C402   1.411       .  A
C401       H2270   1.077   1_455  S
C402        C403   1.421       .  A
C402       C2264   1.418   1_455  A
C403        C405   1.397       .  A
C403        C404   1.391       .  A
C404        H415   1.084       .  S
C405        C406   1.382       .  A
C405        H416   1.084       .  S
C406       C2263   1.396   1_455  A
C406        H417   1.082       .  S
C407        C408   1.421       .  A
C407        C412   1.389       .  A
C407       C2262   1.396       .  A
C408        C409   1.417       .  A
C408       C2258   1.418       .  A
C409        C410   1.392       .  A
C409        H418   1.077       .  S
C410        C411   1.392       .  A
C410        H419   1.083       .  S
C411        C412   1.388       .  A
C412        H420   1.080       .  S
H414       C2257   1.077       .  S
C421        C422   1.398       .  A
C421        C426   1.400       .  A
C422        C423   1.387       .  A
C422        H435   1.083       .  S
C423        C424   1.411       .  A
C423        H436   1.077       .  S
C424        C430   1.417       .  A
C424        C425   1.421       .  A
C425        C427   1.398       .  A
C425        C426   1.393       .  A
C426        H437   1.084       .  S
C427        C428   1.383       .  A
C427        H438   1.084       .  S
C428        C429   1.396       .  A
C428        H439   1.083   1_455  S
C429        C430   1.421       .  A
C429        C434   1.389       .  A
C430        C431   1.417       .  A
C431        C432   1.392       .  A
C431        H440   1.077       .  S
C432        C433   1.391       .  A
C432        H441   1.083       .  S
C433        C434   1.387       .  A
C434        H442   1.077   1_455  S
C443        C444   1.401       .  A
C443        C448   1.402       .  A
C444        C445   1.383       .  A
C444        H457   1.083       .  S
C445        C446   1.408       .  A
C445        H458   1.079       .  S
C446        C452   1.407       .  A
C446        C447   1.415       .  A
C447        C449   1.402       .  A
C447        C448   1.396       .  A
C448        H459   1.083       .  S
C449        C450   1.392       .  A
C449        H460   1.083       .  S
C450        C451   1.399       .  A
C450        H461   1.084       .  S
C451        C452   1.419       .  A
C451        C456   1.400       .  A
C452        C453   1.407       .  A
C453        C454   1.379       .  A
C453        H462   1.080       .  S
C454        C455   1.391       .  A
C454        H463   1.076       .  S
C455        C456   1.397       .  A
C456        H464   1.084       .  S
N465        C469   1.358       .  A
N465        C466   1.368       .  A
N465        C919   1.424       .  S
C466        C467   1.385       .  A
C466        C612   1.514       .  S
C467        C468   1.389       .  A
C467        H470   1.082       .  S
C468        C469   1.384       .  A
C469        C560   1.503       .  S
N472       C2332   1.356   1_455  A
N472        C473   1.363       .  A
N472        C897   1.418       .  S
C473        C474   1.384   1_455  A
C473        C557   1.509       .  S
C474       C2331   1.390   1_545  A
C474       H1405   1.082   1_545  S
C475       C2330   1.390   1_565  A
C475        C476   1.385   1_565  A
C475       H1406   1.082       .  S
C476       N2328   1.356       .  A
C476        C643   1.504       .  S
H477       C1402   1.082       .  S
H478       C1403   1.082       .  S
N479        C483   1.355       .  A
N479        C480   1.363       .  A
N479        C875   1.418       .  S
C480        C481   1.384       .  A
C480        C662   1.510       .  S
C481        C482   1.391       .  A
C481        H484   1.082       .  S
C482        C483   1.386       .  A
C482        H485   1.082       .  S
C483        C593   1.504       .  S
C486        N487   1.353       .  A
C486        N491   1.352       .  A
C486        C863   1.467       .  S
N487        C488   1.351       .  A
C488        N489   1.352       .  A
C488        C907   1.466       .  S
N489        C490   1.351       .  A
C490        N491   1.352       .  A
C490        C885   1.466       .  S
O492        C508   1.292       .  A
O492       Zn498   2.130       .  S
C493        C526   1.502       .  S
C493        O509   1.284       .  A
C493        O506   1.278       .  A
O494        C507   1.289       .  A
O494       Cd501   2.146       .  S
O495        C513   1.280       .  A
O495       Cd504   2.107       .  S
O496        C510   1.283       .  A
O496       Cd500   2.128       .  S
O497        C508   1.279       .  A
O497       Cd500   2.081       .  S
Zn498       O509   2.098       .  S
Zn498       O511   2.057       .  S
Zn498       O503   1.935       .  S
O499        C510   1.279       .  A
O499       Cd504   2.107       .  S
Cd500       O502   2.148       .  S
Cd500       O503   1.984       .  S
Cd501       O505   2.098       .  S
Cd501       O514   2.127       .  S
Cd501       O503   1.988       .  S
O502        C512   1.290       .  A
O503       Cd504   1.939       .  S
Cd504       O506   2.096       .  S
O505        C512   1.281       .  A
C507        C630   1.510       .  S
C507        O511   1.281       .  A
C508        C580   1.510       .  S
C510        C626   1.503       .  S
C512        C530   1.511       .  S
C513        C576   1.502       .  S
C513        O514   1.283       .  A
N515        C519   1.356       .  A
N515        C516   1.364       .  A
N515       C1781   1.421       .  S
C516        C517   1.384       .  A
C516        C658   1.509       .  S
C517        C518   1.391       .  A
C517        H520   1.082       .  S
C518        C519   1.385       .  A
C518        H521   1.082       .  S
C519        C563   1.503       .  S
N522        C526   1.355       .  A
N522        C523   1.364       .  A
N522        C831   1.421       .  S
C523        C524   1.384       .  A
C523        C558   1.507       .  S
C524        C525   1.390       .  A
C524        H527   1.082       .  S
C525        C526   1.385       .  A
C525        H528   1.082       .  S
N529        C533   1.357       .  A
N529        C530   1.366       .  A
N529        C797   1.421       .  S
C530        C531   1.385       .  A
C531        C532   1.389       .  A
C531        H534   1.082       .  S
C532        C533   1.384       .  A
C532        H535   1.082       .  S
C533        C663   1.503       .  S
C536        N537   1.352       .  A
C536        C841   1.468       .  S
C538        N539   1.353   1_554  A
C538        C819   1.468   1_554  S
N539        C540   1.352       .  A
C540        N541   1.353   1_556  A
C540        C809   1.466       .  S
O542        C558   1.292       .  A
O542       Zn548   2.127       .  S
C543        C583   1.504       .  S
C543       O1487   1.285       .  A
C543        O556   1.278       .  A
O544        C557   1.290       .  A
O545        C563   1.280       .  A
O545       Cd554   2.107       .  S
O546        C560   1.282       .  A
O547        C558   1.279       .  A
O547       Cd550   2.078       .  S
Zn548       O559   2.104       .  S
Zn548       O561   2.056       .  S
Zn548       O553   1.937       .  S
O549        C560   1.279       .  A
O549       Cd554   2.107       .  S
Cd550       O553   1.984       .  S
Cd551       O555   2.100       .  S
Cd551       O564   2.130       .  S
O552        C562   1.288       .  A
Cd554      O1020   2.098       .  S
O555        C562   1.282       .  A
O556      Cd1018   2.098   1_556  S
C557        O561   1.282       .  A
O559       C1471   1.285       .  A
C562        C566   1.512       .  S
C563        O564   1.283       .  A
N565       C2425   1.355       .  A
N565        C566   1.364   1_655  A
N565       C2167   1.418       .  S
C566        C567   1.385       .  A
C567        C568   1.391   1_455  A
C567        H570   1.082       .  S
C568       C2425   1.385       .  A
C568        H571   1.082       .  S
C569       N2421   1.355       .  A
C569       C2424   1.385       .  A
C569        C610   1.504       .  S
N572        C576   1.356       .  A
N572        C573   1.363       .  A
N572        C765   1.420       .  S
C573        C574   1.384       .  A
C573        C607   1.509       .  S
C574        C575   1.390       .  A
C574        H577   1.082       .  S
C575        C576   1.385       .  A
C575        H578   1.082       .  S
N579        C583   1.356       .  A
N579        C580   1.364       .  A
N579        C731   1.419       .  S
C580        C581   1.384       .  A
C581        C582   1.391       .  A
C581        H584   1.082       .  S
C582        C583   1.386       .  A
C582        H585   1.082       .  S
C586        N587   1.352       .  A
C586        N591   1.352       .  A
C586        C753   1.467       .  S
N587        C588   1.352       .  A
C588        N589   1.350       .  A
C588        C787   1.467       .  S
N589        C590   1.352       .  A
C590        N591   1.352       .  A
C590        C743   1.467       .  S
O592        C608   1.291       .  A
O592       Zn598   2.127       .  S
C593        O609   1.284       .  A
C593        O606   1.278       .  A
O594        C607   1.289       .  A
O594       Cd601   2.143       .  S
O595       Cd604   2.107       .  S
O596        C610   1.284       .  A
O596       Cd600   2.134       .  S
O597        C608   1.281       .  A
O597       Cd600   2.087       .  S
Zn598       O609   2.103       .  S
Zn598       O611   2.055       .  S
Zn598       O603   1.936       .  S
O599        C610   1.279       .  A
O599       Cd604   2.106       .  S
Cd600       O602   2.159       .  S
Cd600       O603   1.985       .  S
Cd601       O605   2.095       .  S
Cd601       O614   2.124       .  S
Cd601       O603   1.989       .  S
O602        C612   1.291       .  A
O603       Cd604   1.940       .  S
Cd604       O606   2.098       .  S
O605        C612   1.280       .  A
C607        O611   1.281       .  A
C608        C616   1.510       .  S
C613        C633   1.502   1_554  S
N615        C619   1.354       .  A
N615        C616   1.363       .  A
N615        C709   1.418       .  S
C616        C617   1.384       .  A
C617        C618   1.393       .  A
C617        H620   1.082       .  S
C618        C619   1.386       .  A
C618        H621   1.082       .  S
C619        C660   1.503       .  S
N622        C626   1.357       .  A
N622        C623   1.365       .  A
N622        C699   1.421       .  S
C623        C624   1.385       .  A
C623       C2513   1.511       .  S
C624        C625   1.389       .  A
C624       H2483   1.082       .  S
C625        C626   1.385       .  A
C625        H628   1.082       .  S
H627       C2480   1.082       .  S
N629        C633   1.357       .  A
N629        C630   1.365       .  A
N629        C665   1.422       .  S
C630        C631   1.385       .  A
C631        C632   1.389       .  A
C631        H634   1.082       .  S
C632        C633   1.384       .  A
C632        H635   1.082       .  S
C636        N637   1.350       .  A
C636        N641   1.352       .  A
C636        C677   1.466       .  S
N637        C638   1.352       .  A
C638       N1567   1.353       .  A
C638        C687   1.467       .  S
N639       C1566   1.353       .  A
N639        C640   1.354       .  A
C640       N1569   1.352       .  A
C640        C721   1.469       .  S
N641       C1568   1.352       .  A
O642        C658   1.292       .  A
O642      Zn3432   2.124   1_545  S
C643        O659   1.284       .  A
C643        O656   1.279       .  A
O644        C657   1.289       .  A
O644       Cd651   2.146       .  S
O645        C663   1.279       .  A
O645      Cd1582   2.107       .  S
O646        C660   1.284       .  A
O646       Cd650   2.135   1_545  S
O647       C2514   1.280       .  A
O647       Cd650   2.085   1_545  S
Zn648      O3426   2.124       .  S
Zn648      O1587   2.099       .  S
Zn648       O661   2.056       .  S
Zn648       O653   1.937       .  S
O649        C660   1.279       .  A
O649       Cd654   2.104       .  S
Cd650      O1580   2.153       .  S
Cd650      O1581   1.987       .  S
Cd651       O655   2.094       .  S
Cd651       O664   2.124       .  S
Cd651       O653   1.985       .  S
O652        C662   1.290       .  A
O652      Cd1578   2.153       .  S
O653      Cd1578   1.987       .  S
O653      Cd1582   1.941       .  S
Cd654      O1573   2.107   1_545  S
Cd654       O656   2.100       .  S
Cd654      O1581   1.941   1_545  S
O655        C662   1.282       .  A
C657       C2479   1.511       .  S
C657        O661   1.281       .  A
C658       O2503   1.280   1_455  A
O659      Zn1576   2.099   1_545  S
C663        O664   1.283       .  A
C665        C666   1.389       .  A
C665        C670   1.395       .  A
C666        C667   1.380       .  A
C666        H679   1.073       .  S
C667        C668   1.409       .  A
C667        H680   1.078   1_556  S
C668        C674   1.411   1_556  A
C668        C669   1.422       .  A
C669        C671   1.398       .  A
C669        C670   1.399       .  A
C670        H681   1.084       .  S
C671        C672   1.390   1_556  A
C671        H682   1.084       .  S
C672        C673   1.401       .  A
C672        H683   1.084       .  S
C673        C674   1.418       .  A
C675        C676   1.383       .  A
C675        H684   1.078       .  S
C676        C677   1.401       .  A
C676        H685   1.082       .  S
C677        C678   1.401       .  A
C678        H686   1.084       .  S
C687        C688   1.401       .  A
C687        C692   1.402       .  A
C688        C689   1.383       .  A
C688        H701   1.083       .  S
C689        C690   1.409       .  A
C689        H702   1.079       .  S
C690        C696   1.410       .  A
C690        C691   1.417       .  A
C691        C693   1.401       .  A
C691        C692   1.397       .  A
C692       H1631   1.083       .  S
C693        C694   1.391       .  A
C693       H1632   1.083       .  S
C694        C695   1.398       .  A
C694        H705   1.084       .  S
C695        C696   1.421       .  A
C695        C700   1.400       .  A
C696        C697   1.408       .  A
C697        C698   1.379       .  A
C697        H706   1.079       .  S
C698        C699   1.388       .  A
C698        H707   1.072       .  S
C699        C700   1.395       .  A
C700        H708   1.084       .  S
H703       C1620   1.083       .  S
H704       C1621   1.083       .  S
C709        C710   1.392       .  A
C709        C714   1.387       .  A
C710        C711   1.393       .  A
C710        H723   1.083       .  S
C711        C712   1.418       .  A
C711        H724   1.077       .  S
C712        C718   1.419       .  A
C712        C713   1.421       .  A
C713        C715   1.395       .  A
C713        C714   1.387       .  A
C714        H725   1.080       .  S
C715        C716   1.381       .  A
C715        H726   1.082       .  S
C716        C717   1.396       .  A
C716        H727   1.084       .  S
C717        C718   1.422       .  A
C717        C722   1.391       .  A
C718        C719   1.411       .  A
C719        C720   1.389       .  A
C719        H728   1.077       .  S
C720        C721   1.401       .  A
C720        H729   1.083       .  S
C721        C722   1.398       .  A
C722        H730   1.085       .  S
C731        C732   1.386       .  A
C731        C736   1.395       .  A
C732        C733   1.379       .  A
C732        H745   1.073       .  S
C733        C734   1.409       .  A
C733        H746   1.077       .  S
C734        C740   1.412       .  A
C734        C735   1.423       .  A
C735       C1665   1.398       .  A
C735        C736   1.400       .  A
C736        H747   1.084       .  S
C737       C1663   1.398       .  A
C737        C738   1.390   1_565  A
C737        H748   1.084       .  S
C738        C739   1.400       .  A
C738        H749   1.084       .  S
C739       C1668   1.418   1_545  A
C739        C744   1.396       .  A
C740       C1667   1.418       .  A
C740        C741   1.410       .  A
C741       C1670   1.381       .  A
C741        H750   1.077       .  S
C742       C1669   1.381   1_545  A
C742        C743   1.400       .  A
C742       H1679   1.083   1_545  S
C743        C744   1.402       .  A
C744        H752   1.084       .  S
H751       C1670   1.083       .  S
C753        C754   1.398       .  A
C753        C758   1.400       .  A
C754        C755   1.388       .  A
C754        H767   1.082       .  S
C755        C756   1.411       .  A
C755        H768   1.077       .  S
C756        C762   1.418       .  A
C756        C757   1.421       .  A
C757        C759   1.397       .  A
C757        C758   1.393       .  A
C758        H769   1.084       .  S
C759        C760   1.383       .  A
C759        H770   1.084       .  S
C760        C761   1.396       .  A
C760        H771   1.084       .  S
C761        C762   1.422       .  A
C761        C766   1.389       .  A
C762        C763   1.417       .  A
C763        C764   1.391       .  A
C763        H772   1.077       .  S
C764        C765   1.393       .  A
C764        H773   1.083       .  S
C765        C766   1.388       .  A
C766        H774   1.079       .  S
C775       N1957   1.417       .  S
C775        C776   1.392       .  A
C775        C780   1.386   1_554  A
C776        C777   1.392   1_554  A
C776       H2181   1.083       .  S
C777        C778   1.417       .  A
C777        H790   1.077       .  S
C778        C784   1.417       .  A
C778        C779   1.421       .  A
C779        C781   1.395       .  A
C779        C780   1.386       .  A
C780        H791   1.079       .  S
C781        C782   1.380       .  A
C781        H792   1.083       .  S
C782        C783   1.396       .  A
C782        H793   1.084       .  S
C783        C784   1.421       .  A
C783        C788   1.390       .  A
C784        C785   1.411       .  A
C785        C786   1.389       .  A
C785        H794   1.077       .  S
C786        C787   1.399       .  A
C786        H795   1.082       .  S
C787        C788   1.399       .  A
C788        H796   1.084       .  S
H789       C2168   1.083       .  S
C797        C798   1.388       .  A
C797        C802   1.398       .  A
C798        C799   1.376       .  A
C798        H811   1.074       .  S
C799        C800   1.406       .  A
C799        H812   1.080       .  S
C800        C806   1.404       .  A
C800        C801   1.419       .  A
C801        C803   1.400       .  A
C801        C802   1.401       .  A
C802        H813   1.084       .  S
C803        C804   1.394       .  A
C803        H814   1.084       .  S
C804        C805   1.403       .  A
C804        H815   1.084       .  S
C805        C806   1.415       .  A
C805        C810   1.398       .  A
C806        C807   1.407       .  A
C807        C808   1.378       .  A
C807        H816   1.079       .  S
C808        C809   1.401       .  A
C808        H817   1.083       .  S
C809        C810   1.404       .  A
C810        H818   1.083       .  S
C819       C2676   1.399   1_556  A
C819        C824   1.399       .  A
C820       C2675   1.399   1_454  A
C820        C821   1.389   1_554  A
C820        H833   1.082       .  S
C821        C822   1.411       .  A
C821        H834   1.077   1_556  S
C822        C828   1.419       .  A
C822        C823   1.422       .  A
C823       C2681   1.397       .  A
C823       C2680   1.392   1_455  A
C824       C2679   1.392       .  A
C824        H835   1.084       .  S
C825       C2679   1.397       .  A
C825       C2682   1.382       .  A
C825        H836   1.084       .  S
C826       C2681   1.382       .  A
C826        C827   1.396       .  A
C826        H837   1.083       .  S
C827        C828   1.421       .  A
C827        C832   1.389       .  A
C828        C829   1.417       .  A
C829        C830   1.393       .  A
C829        H838   1.077       .  S
C830        C831   1.393       .  A
C830        H839   1.083       .  S
C831        C832   1.386       .  A
C832        H840   1.078       .  S
C841        C842   1.400       .  A
C841        C846   1.399       .  A
C842        C843   1.391       .  A
C842        H855   1.083       .  S
C843        C844   1.412       .  A
C843        H856   1.077       .  S
C844       C2706   1.420       .  A
C844       C2701   1.421       .  A
C845       C2700   1.421       .  A
C845        C847   1.397   1_655  A
C845       C2702   1.391       .  A
C846       C2701   1.391       .  A
C846       H2249   1.084       .  S
C847        C848   1.381       .  A
C847        H858   1.084       .  S
C848        C849   1.396       .  A
C848        H859   1.083       .  S
C849        C850   1.422   1_455  A
C849        C854   1.388       .  A
C850       C2700   1.420       .  A
C850       C2707   1.417       .  A
C851       C2706   1.417       .  A
C851       C2708   1.394       .  A
C851        H860   1.077       .  S
C852       C2707   1.394       .  A
C852        C853   1.393   1_655  A
C852       H2717   1.083       .  S
C853       N1443   1.421       .  S
C853        C854   1.386       .  A
C854        H862   1.077       .  S
H857       C2238   1.084       .  S
H861       C2708   1.083       .  S
C863        C864   1.399       .  A
C863        C868   1.400       .  A
C864        C865   1.389       .  A
C864        H877   1.083       .  S
C865        C866   1.411       .  A
C865       H2734   1.077   1_455  S
C866       C2728   1.418   1_455  A
C866        C867   1.421       .  A
C867        C869   1.397       .  A
C867        C868   1.391       .  A
C868        H879   1.084       .  S
C869        C870   1.382       .  A
C869        H880   1.084       .  S
C870       C2727   1.396   1_455  A
C870        H881   1.082       .  S
C871       C2726   1.396       .  A
C871        C872   1.421       .  A
C871        C876   1.389       .  A
C872       C2722   1.418       .  A
C872        C873   1.417       .  A
C873        C874   1.392       .  A
C873        H882   1.077       .  S
C874        C875   1.392       .  A
C874        H883   1.083       .  S
C875        C876   1.388       .  A
C876        H884   1.079       .  S
H878       C2721   1.077       .  S
C885        C886   1.398       .  A
C885        C890   1.400       .  A
C886        C887   1.387       .  A
C886        H899   1.083       .  S
C887        C888   1.411       .  A
C887        H900   1.077       .  S
C888        C894   1.417       .  A
C888        C889   1.421       .  A
C889        C891   1.398       .  A
C889        C890   1.393       .  A
C890        H901   1.084       .  S
C891        C892   1.383       .  A
C891        H902   1.084       .  S
C892        C893   1.396       .  A
C892        H903   1.083   1_455  S
C893        C894   1.421       .  A
C893        C898   1.389       .  A
C894        C895   1.417       .  A
C895        C896   1.392       .  A
C895        H904   1.077       .  S
C896        C897   1.391       .  A
C896        H905   1.083       .  S
C897        C898   1.387       .  A
C898        H906   1.077   1_455  S
C907        C908   1.401       .  A
C907        C912   1.402       .  A
C908        C909   1.383       .  A
C908        H921   1.083       .  S
C909        C910   1.408       .  A
C909        H922   1.079       .  S
C910        C916   1.407       .  A
C910        C911   1.415       .  A
C911        C913   1.402       .  A
C911        C912   1.396       .  A
C912        H923   1.083       .  S
C913        C914   1.392       .  A
C913        H924   1.083       .  S
C914        C915   1.399       .  A
C914        H925   1.084       .  S
C915        C916   1.420       .  A
C915        C920   1.400       .  A
C916        C917   1.407       .  A
C917        C918   1.379       .  A
C917        H926   1.080       .  S
C918        C919   1.391       .  A
C918        H927   1.076       .  S
C919        C920   1.397       .  A
C920        H928   1.084       .  S
N929        C933   1.357       .  A
N929        C930   1.368       .  A
N929       C1383   1.424       .  S
C930        C931   1.385       .  A
C930       C1076   1.514       .  S
C931        C932   1.389   1_554  A
C931        H934   1.082       .  S
C932        C933   1.384   1_556  A
C932       H1399   1.082       .  S
C933       C1024   1.503       .  S
H935       C1396   1.082       .  S
N936       C2796   1.356   1_455  A
N936        C937   1.363       .  A
N936       C1361   1.418       .  S
C937        C938   1.384   1_455  A
C937       C1021   1.509       .  S
C938       C2795   1.390       .  A
C939       C2794   1.390       .  A
C939        C940   1.385       .  A
C940       N2792   1.356       .  A
C940       C1107   1.504       .  S
N943        C947   1.355       .  A
N943        C944   1.362       .  A
N943       C1339   1.418       .  S
C944        C945   1.384       .  A
C944       C1126   1.510       .  S
C945        C946   1.392       .  A
C945        H948   1.082       .  S
C946        C947   1.386       .  A
C946        H949   1.082       .  S
C947       C1057   1.504       .  S
C950        N951   1.353       .  A
C950        N955   1.352       .  A
C950       C1327   1.467       .  S
N951        C952   1.351       .  A
C952        N953   1.352       .  A
C952       C1371   1.466       .  S
N953        C954   1.351       .  A
C954        N955   1.352       .  A
C954       C1349   1.466       .  S
O956        C972   1.292       .  A
O956       Zn962   2.131       .  S
C957        C990   1.502       .  S
C957        O973   1.284       .  A
C957        O970   1.278       .  A
O958        C971   1.289       .  A
O958       Cd965   2.146       .  S
O959        C977   1.280       .  A
O959       Cd968   2.106       .  S
O960        C974   1.283       .  A
O960       Cd964   2.128       .  S
O961        C972   1.279       .  A
O961       Cd964   2.081       .  S
Zn962       O973   2.099       .  S
Zn962       O975   2.057       .  S
Zn962       O967   1.935       .  S
O963        C974   1.279       .  A
O963       Cd968   2.106       .  S
Cd964       O966   2.148       .  S
Cd964       O967   1.984       .  S
Cd965       O969   2.098       .  S
Cd965       O978   2.127       .  S
Cd965       O967   1.988       .  S
O966        C976   1.290       .  A
O967       Cd968   1.940       .  S
Cd968       O970   2.095       .  S
O969        C976   1.281       .  A
C971       C1094   1.511       .  S
C971        O975   1.282       .  A
C972       C1044   1.510       .  S
C974       C1090   1.503       .  S
C976        C994   1.511       .  S
C977       C1040   1.502       .  S
C977        O978   1.283       .  A
N979        C983   1.356       .  A
N979        C980   1.364       .  A
C980        C981   1.384       .  A
C980       C1122   1.509       .  S
C981        C982   1.390       .  A
C981        H984   1.082       .  S
C982        C983   1.385       .  A
C982        H985   1.082       .  S
C983       C1027   1.503       .  S
N986        C990   1.355       .  A
N986        C987   1.364       .  A
N986       C1295   1.421       .  S
C987        C988   1.384       .  A
C987       C1022   1.507       .  S
C988        C989   1.390       .  A
C988        H991   1.082       .  S
C989        C990   1.385       .  A
C989        H992   1.082       .  S
N993        C997   1.357       .  A
N993        C994   1.365       .  A
N993       C1261   1.420       .  S
C994        C995   1.385       .  A
C995        C996   1.389       .  A
C995        H998   1.082       .  S
C996        C997   1.384       .  A
C996        H999   1.082       .  S
C997       C1127   1.503       .  S
C1000      N1001   1.352       .  A
C1000      N1469   1.350       .  A
C1000      C1305   1.468       .  S
N1001      C1466   1.352       .  A
C1002      N1465   1.352       .  A
C1002      N1003   1.352       .  A
C1002      C1283   1.468       .  S
N1003      C1004   1.352       .  A
C1004      N1005   1.353       .  A
C1004      C1273   1.466       .  S
N1005      C1464   1.350       .  A
O1006      C1022   1.292       .  A
O1006     Zn1012   2.126       .  S
C1007      C1047   1.504   1_545  S
C1007      O1020   1.278       .  A
O1008      C1021   1.290       .  A
O1008     Cd1479   2.148       .  S
O1009      C1027   1.280       .  A
O1009     Cd1018   2.107       .  S
O1010      C1024   1.282       .  A
O1010     Cd1478   2.121   1_554  S
O1011      C1022   1.279       .  A
O1011     Cd1014   2.078       .  S
Zn1012     O1023   2.104       .  S
Zn1012     O1025   2.056       .  S
Zn1012     O1017   1.937       .  S
O1013      C1024   1.279       .  A
O1013     Cd1018   2.107       .  S
Cd1014     O1474   2.121       .  S
Cd1014     O1480   2.146       .  S
Cd1014     O1017   1.984       .  S
Cd1015     O1472   2.148       .  S
Cd1015     O1019   2.101   1_556  S
Cd1015     O1028   2.129   1_556  S
Cd1015     O1481   1.983       .  S
O1016      C1026   1.288       .  A
O1016     Cd1478   2.146   1_554  S
O1017     Cd1479   1.983       .  S
O1017     Cd1482   1.942       .  S
Cd1018     O1481   1.942   1_554  S
O1019      C1026   1.282       .  A
C1021      O1025   1.282       .  A
C1026      C1030   1.512       .  S
C1027      O1028   1.283       .  A
N1029      C2889   1.355       .  A
N1029      C1030   1.364   1_655  A
N1029      C3559   1.418       .  S
C1030      C1031   1.385       .  A
C1031      C1032   1.391   1_455  A
C1031      H1034   1.082       .  S
C1032      C2889   1.385       .  A
C1032      H1035   1.082       .  S
C1033      N2885   1.355       .  A
C1033      C2888   1.385       .  A
C1033      C1074   1.505       .  S
N1036      C1040   1.356       .  A
N1036      C1037   1.363       .  A
N1036      C1229   1.420       .  S
C1037      C1038   1.384       .  A
C1037      C1071   1.509       .  S
C1038      C1039   1.390       .  A
C1038      H1041   1.082       .  S
C1039      C1040   1.385       .  A
C1039      H1042   1.082       .  S
N1043      C1047   1.356       .  A
N1043      C1044   1.365       .  A
N1043      C1195   1.419       .  S
C1044      C1045   1.384       .  A
C1045      C1046   1.391       .  A
C1045      H1048   1.082       .  S
C1046      C1047   1.386       .  A
C1046      H1049   1.082       .  S
C1050      N1051   1.352       .  A
C1050      N1055   1.352       .  A
C1050      C1217   1.467       .  S
N1051      C1052   1.352       .  A
C1052      N1053   1.350       .  A
C1052      C1251   1.467       .  S
N1053      C1054   1.352       .  A
C1054      N1055   1.352       .  A
C1054      C1207   1.466       .  S
O1056      C1072   1.291       .  A
O1056     Zn1062   2.127       .  S
C1057      O1073   1.284       .  A
C1057      O1070   1.278       .  A
O1058      C1071   1.289       .  A
O1058     Cd1065   2.143       .  S
O1059      C1541   1.279       .  A
O1059     Cd1068   2.107       .  S
O1060      C1074   1.284       .  A
O1060     Cd1064   2.135       .  S
O1061      C1072   1.281       .  A
O1061     Cd1064   2.087       .  S
Zn1062     O1073   2.104       .  S
Zn1062     O1075   2.055       .  S
Zn1062     O1067   1.935       .  S
O1063      C1074   1.279       .  A
O1063     Cd1068   2.106       .  S
Cd1064     O1066   2.159       .  S
Cd1064     O1067   1.985       .  S
Cd1065     O1069   2.095       .  S
Cd1065     O1078   2.124       .  S
Cd1065     O1067   1.989       .  S
O1066      C1076   1.291       .  A
O1067     Cd1068   1.940       .  S
Cd1068     O1070   2.098       .  S
O1069      C1076   1.280       .  A
C1071      O1075   1.281       .  A
C1072      C1080   1.510       .  S
C1077      C1097   1.502       .  S
C1077      O1523   1.279       .  A
C1077      O1542   1.282       .  A
O1078      C1541   1.282       .  A
N1079      C1083   1.354       .  A
N1079      C1080   1.363       .  A
N1079      C1173   1.418       .  S
C1080      C1081   1.384       .  A
C1081      C1082   1.393       .  A
C1081      H1084   1.082       .  S
C1082      C1083   1.386       .  A
C1082      H1085   1.082       .  S
C1083      C1124   1.503       .  S
N1086      C1090   1.357       .  A
N1086      C1087   1.365       .  A
N1086      C1163   1.421       .  S
C1087      C1088   1.385       .  A
C1087      C2977   1.511       .  S
C1088      C1089   1.389       .  A
C1088      H2947   1.082       .  S
C1089      C1090   1.385       .  A
C1089      H1092   1.082       .  S
H1091      C2944   1.082       .  S
N1093      C1097   1.357       .  A
N1093      C1094   1.365       .  A
N1093      C1129   1.422       .  S
C1094      C1095   1.385       .  A
C1095      C1096   1.389       .  A
C1095      H1098   1.082       .  S
C1096      C1097   1.384       .  A
C1096      H1099   1.082       .  S
C1100      N1101   1.350       .  A
C1100      N1105   1.351   1_565  A
C1100      C1141   1.466       .  S
N1101      C1102   1.352   1_565  A
C1102      C1151   1.467   1_545  S
N1103      C1104   1.354       .  A
C1104      C1185   1.469       .  S
O1106      C1122   1.292       .  A
O1106     Zn2040   2.124       .  S
C1107      O1123   1.284       .  A
C1107      O1120   1.279       .  A
O1108      C1121   1.289       .  A
O1108     Cd1115   2.147       .  S
O1109      C1127   1.279       .  A
O1110      C1124   1.284       .  A
O1110     Cd1114   2.134       .  S
O1111      C2978   1.280       .  A
O1111     Cd1114   2.084       .  S
Zn1112     O2034   2.124   1_565  S
Zn1112     O1125   2.056       .  S
Zn1112     O1117   1.937       .  S
O1113      C1124   1.279       .  A
O1113     Cd1118   2.104       .  S
Cd1115     O1119   2.094       .  S
Cd1115     O1128   2.125       .  S
Cd1115     O1117   1.984       .  S
O1116      C1126   1.289       .  A
Cd1118     O1120   2.100       .  S
O1119      C1126   1.282       .  A
C1121      C2943   1.511       .  S
C1121      O1125   1.281       .  A
C1122      O2967   1.280   1_455  A
C1127      O1128   1.283       .  A
C1129      C1130   1.389       .  A
C1129      C1134   1.395       .  A
C1130      C1131   1.380       .  A
C1130      H1143   1.073       .  S
C1131      C1132   1.408       .  A
C1131      H1144   1.078       .  S
C1132      C1138   1.411       .  A
C1132      C1133   1.421       .  A
C1133      C1135   1.398       .  A
C1133      C1134   1.399       .  A
C1134      H1145   1.084       .  S
C1135      C1136   1.390       .  A
C1135      H1146   1.084       .  S
C1136      C1137   1.401       .  A
C1136      H1147   1.083       .  S
C1137      C1138   1.417       .  A
C1137      C1606   1.397       .  A
C1138      C1603   1.410       .  A
C1139      C1602   1.410       .  A
C1139      C1140   1.383       .  A
C1139      H1148   1.078   1_554  S
C1140      C1141   1.401       .  A
C1140      H1149   1.082       .  S
C1141      C1142   1.401       .  A
C1142      C1601   1.397       .  A
C1142      H1150   1.084       .  S
C1151      C1152   1.401       .  A
C1151      C1156   1.402   1_565  A
C1152      C1153   1.383       .  A
C1152      H1165   1.083       .  S
C1153      C1154   1.409       .  A
C1153      H1166   1.079       .  S
C1154      C1160   1.409       .  A
C1154      C1155   1.416       .  A
C1155      C1157   1.401   1_565  A
C1155      C1156   1.397   1_565  A
C1157      C1158   1.391   1_545  A
C1158      C1159   1.398       .  A
C1158      H1169   1.084   1_565  S
C1159      C1160   1.421       .  A
C1159      C1164   1.400       .  A
C1160      C1161   1.408       .  A
C1161      C1162   1.379       .  A
C1161      H1170   1.079       .  S
C1162      C1163   1.388       .  A
C1162      H1171   1.072       .  S
C1163      C1164   1.396       .  A
C1164      H1172   1.084       .  S
C1173      C1174   1.392       .  A
C1173      C1178   1.386       .  A
C1174      C1175   1.393       .  A
C1174      H1187   1.083       .  S
C1175      C1176   1.418       .  A
C1175      H1188   1.077       .  S
C1176      C1182   1.419       .  A
C1176      C1177   1.421       .  A
C1177      C1179   1.395       .  A
C1177      C1178   1.387       .  A
C1178      H1189   1.080       .  S
C1179      C1180   1.381       .  A
C1179      H1190   1.082       .  S
C1180      C1181   1.396       .  A
C1180      H1191   1.084       .  S
C1181      C1182   1.422       .  A
C1181      C1186   1.391       .  A
C1182      C1183   1.411       .  A
C1183      C1184   1.389       .  A
C1183      H1192   1.077       .  S
C1184      C1185   1.401       .  A
C1184      H1193   1.083       .  S
C1185      C1186   1.398       .  A
C1186      H1194   1.085       .  S
C1195      C1196   1.386       .  A
C1195      C1200   1.395       .  A
C1196      C1197   1.379       .  A
C1196      H1209   1.073       .  S
C1197      C1198   1.409       .  A
C1197      H1210   1.077       .  S
C1198      C1204   1.412       .  A
C1198      C1199   1.423       .  A
C1199      C1200   1.400       .  A
C1200      H1211   1.084       .  S
C1201      C1202   1.390       .  A
C1201      H1212   1.084       .  S
C1202      C1203   1.400       .  A
C1202      H1213   1.084       .  S
C1203      C1208   1.396       .  A
C1204      C1205   1.410       .  A
C1205      H1214   1.077       .  S
C1206      C1207   1.400       .  A
C1207      C1208   1.402       .  A
C1208      H1216   1.084       .  S
C1217      C1218   1.398       .  A
C1217      C1222   1.400       .  A
C1218      C1219   1.388       .  A
C1218      H1231   1.082       .  S
C1219      C1220   1.411       .  A
C1219      H1232   1.077       .  S
C1220      C1226   1.418       .  A
C1220      C1221   1.421       .  A
C1221      C1223   1.397       .  A
C1221      C1222   1.393       .  A
C1222      H1233   1.084       .  S
C1223      C1224   1.383       .  A
C1223      H1234   1.084       .  S
C1224      C1225   1.396       .  A
C1224      H1235   1.084       .  S
C1225      C1226   1.422       .  A
C1225      C1230   1.389       .  A
C1226      C1227   1.417       .  A
C1227      C1228   1.391       .  A
C1227      H1236   1.077       .  S
C1228      C1229   1.393       .  A
C1228      H1237   1.083       .  S
C1229      C1230   1.388       .  A
C1230      H1238   1.079       .  S
C1239      N3349   1.418       .  S
C1239      C1240   1.392       .  A
C1239      C1244   1.386       .  A
C1240      C1241   1.392       .  A
C1240      H3573   1.083       .  S
C1241      C1242   1.417       .  A
C1241      H1254   1.077       .  S
C1242      C1248   1.418       .  A
C1242      C1243   1.421       .  A
C1243      C1245   1.395       .  A
C1243      C1244   1.386       .  A
C1244      H1255   1.079       .  S
C1245      C1246   1.380       .  A
C1245      H1256   1.083       .  S
C1246      C1247   1.396       .  A
C1246      H1257   1.084       .  S
C1247      C1248   1.421       .  A
C1247      C1252   1.390       .  A
C1248      C1249   1.411       .  A
C1249      C1250   1.389       .  A
C1249      H1258   1.077       .  S
C1250      C1251   1.399       .  A
C1250      H1259   1.082       .  S
C1251      C1252   1.399       .  A
C1252      H1260   1.084       .  S
H1253      C3560   1.083       .  S
C1261      C1262   1.388       .  A
C1261      C1266   1.398       .  A
C1262      C1263   1.376       .  A
C1262      H1275   1.074       .  S
C1263      C1264   1.406       .  A
C1263      H1276   1.080       .  S
C1264      C1270   1.405       .  A
C1264      C1265   1.419       .  A
C1265      C1267   1.400       .  A
C1265      C1266   1.401       .  A
C1266      H1277   1.084       .  S
C1267      C1268   1.394       .  A
C1267      H1278   1.084       .  S
C1268      C1269   1.402       .  A
C1268      H1279   1.084       .  S
C1269      C1270   1.415       .  A
C1269      C1274   1.397       .  A
C1270      C1271   1.407       .  A
C1271      C1272   1.378       .  A
C1271      H1280   1.079       .  S
C1272      C1273   1.401       .  A
C1272      H1281   1.083       .  S
C1273      C1274   1.404       .  A
C1274      H1282   1.083       .  S
C1283      C3140   1.399       .  A
C1283      C1288   1.400       .  A
C1284      C3139   1.399   1_455  A
C1284      C1285   1.389       .  A
C1284      H1297   1.082       .  S
C1285      C1286   1.411       .  A
C1285      H1298   1.077       .  S
C1286      C1292   1.419       .  A
C1286      C1287   1.422       .  A
C1287      C3145   1.397       .  A
C1287      C3144   1.392   1_455  A
C1288      C3143   1.392       .  A
C1288      H1299   1.084       .  S
C1289      C3143   1.397       .  A
C1289      C3146   1.382       .  A
C1289      H1300   1.084       .  S
C1290      C3145   1.382       .  A
C1290      C1291   1.396       .  A
C1290      H1301   1.083       .  S
C1291      C1292   1.421       .  A
C1291      C1296   1.389       .  A
C1292      C1293   1.417       .  A
C1293      C1294   1.393       .  A
C1293      H1302   1.077       .  S
C1294      C1295   1.393       .  A
C1294      H1303   1.083       .  S
C1295      C1296   1.387       .  A
C1296      H1304   1.078       .  S
C1305      C1306   1.400       .  A
C1305      C1310   1.399       .  A
C1306      C1307   1.391       .  A
C1306      H1319   1.083       .  S
C1307      C1308   1.412       .  A
C1307      H1320   1.077       .  S
C1308      C3170   1.420       .  A
C1308      C3165   1.421       .  A
C1309      C3164   1.421       .  A
C1309      C1311   1.397   1_655  A
C1309      C3166   1.391       .  A
C1310      C3165   1.391       .  A
C1310      H3641   1.084       .  S
C1311      C1312   1.381       .  A
C1311      H1322   1.084       .  S
C1312      C1313   1.396       .  A
C1312      H1323   1.083       .  S
C1313      C1314   1.422   1_455  A
C1313      C1318   1.389       .  A
C1314      C3164   1.420       .  A
C1314      C3171   1.417       .  A
C1315      C3170   1.417       .  A
C1315      C3172   1.394   1_565  A
C1315      H1324   1.077       .  S
C1316      C3171   1.394   1_545  A
C1316      C1317   1.394   1_655  A
C1316      H3181   1.083       .  S
C1317      C1318   1.386   1_545  A
C1318      H1326   1.078       .  S
H1321      C3630   1.084       .  S
H1325      C3172   1.083       .  S
C1327      C1328   1.399       .  A
C1327      C1332   1.400       .  A
C1328      C1329   1.389       .  A
C1328      H1341   1.083       .  S
C1329      C1330   1.411       .  A
C1329      H3198   1.077   1_455  S
C1330      C3192   1.418   1_455  A
C1330      C1331   1.421       .  A
C1331      C1333   1.397       .  A
C1331      C1332   1.391       .  A
C1332      H1343   1.084       .  S
C1333      C1334   1.382       .  A
C1333      H1344   1.084       .  S
C1334      C3191   1.396   1_455  A
C1334      H1345   1.082       .  S
C1335      C3190   1.396       .  A
C1335      C1336   1.421       .  A
C1335      C1340   1.389       .  A
C1336      C3186   1.418       .  A
C1336      C1337   1.417       .  A
C1337      C1338   1.392       .  A
C1337      H1346   1.077       .  S
C1338      C1339   1.392       .  A
C1338      H1347   1.083       .  S
C1339      C1340   1.388       .  A
C1340      H1348   1.080       .  S
H1342      C3185   1.077       .  S
C1349      C1350   1.398       .  A
C1349      C1354   1.400       .  A
C1350      C1351   1.388       .  A
C1350      H1363   1.083       .  S
C1351      C1352   1.411       .  A
C1351      H1364   1.077       .  S
C1352      C1358   1.417       .  A
C1352      C1353   1.421       .  A
C1353      C1355   1.398       .  A
C1353      C1354   1.393       .  A
C1354      H1365   1.084       .  S
C1355      C1356   1.383       .  A
C1355      H1366   1.084       .  S
C1356      C1357   1.396       .  A
C1356      H1367   1.083   1_455  S
C1357      C1358   1.421       .  A
C1357      C1362   1.389       .  A
C1358      C1359   1.417       .  A
C1359      C1360   1.392       .  A
C1359      H1368   1.077       .  S
C1360      C1361   1.392       .  A
C1360      H1369   1.083       .  S
C1361      C1362   1.387       .  A
C1362      H1370   1.077   1_455  S
C1371      C1372   1.401       .  A
C1371      C1376   1.402       .  A
C1372      C1373   1.382       .  A
C1372      H1385   1.083       .  S
C1373      C1374   1.408       .  A
C1373      H1386   1.079       .  S
C1374      C1380   1.407       .  A
C1374      C1375   1.415       .  A
C1375      C1377   1.402       .  A
C1375      C1376   1.396       .  A
C1376      H1387   1.083       .  S
C1377      C1378   1.393       .  A
C1377      H1388   1.083       .  S
C1378      C1379   1.399       .  A
C1378      H1389   1.084       .  S
C1379      C1380   1.419       .  A
C1379      C1384   1.400       .  A
C1380      C1381   1.407       .  A
C1381      C1382   1.379       .  A
C1381      H1390   1.080       .  S
C1382      C1383   1.391       .  A
C1382      H1391   1.076       .  S
C1383      C1384   1.398       .  A
C1384      H1392   1.084       .  S
N1393      C1397   1.357       .  A
N1393      C1394   1.368       .  A
N1393      C1847   1.424       .  S
C1394      C1395   1.385       .  A
C1394      C1540   1.514       .  S
C1395      C1396   1.389       .  A
C1395      H1398   1.082       .  S
C1396      C1397   1.384       .  A
C1397      C1488   1.503       .  S
N1400      C3260   1.356   1_455  A
N1400      C1401   1.363       .  A
N1400      C1825   1.418       .  S
C1401      C1402   1.384   1_455  A
C1401      C1485   1.509       .  S
C1402      C3259   1.390       .  A
C1403      C3258   1.390       .  A
C1403      C1404   1.385       .  A
C1404      N3256   1.356       .  A
C1404      C1571   1.504       .  S
N1407      C1411   1.355       .  A
N1407      C1408   1.363       .  A
N1407      C1803   1.418       .  S
C1408      C1409   1.384       .  A
C1408      C1590   1.510       .  S
C1409      C1410   1.392       .  A
C1409      H1412   1.082       .  S
C1410      C1411   1.386       .  A
C1410      H1413   1.082       .  S
C1411      C1521   1.504       .  S
C1414      N1415   1.353       .  A
C1414      N1419   1.352       .  A
C1414      C1791   1.467       .  S
N1415      C1416   1.351       .  A
C1416      N1417   1.352       .  A
C1416      C1835   1.466       .  S
N1417      C1418   1.351       .  A
C1418      N1419   1.352       .  A
C1418      C1813   1.466       .  S
O1420      C1436   1.292       .  A
O1420     Zn1426   2.130       .  S
C1421      C1454   1.502       .  S
C1421      O1437   1.284       .  A
C1421      O1434   1.278       .  A
O1422      C1435   1.289       .  A
O1422     Cd1429   2.145       .  S
O1423      C1441   1.280       .  A
O1423     Cd1432   2.106       .  S
O1424      C1438   1.283       .  A
O1424     Cd1428   2.128       .  S
O1425      C1436   1.279       .  A
O1425     Cd1428   2.081       .  S
Zn1426     O1437   2.099       .  S
Zn1426     O1439   2.057       .  S
Zn1426     O1431   1.935       .  S
O1427      C1438   1.279       .  A
O1427     Cd1432   2.106       .  S
Cd1428     O1430   2.148       .  S
Cd1428     O1431   1.984       .  S
Cd1429     O1433   2.097       .  S
Cd1429     O1442   2.127       .  S
Cd1429     O1431   1.988       .  S
O1430      C1440   1.290       .  A
O1431     Cd1432   1.939       .  S
Cd1432     O1434   2.095       .  S
O1433      C1440   1.281       .  A
C1435      C1558   1.511       .  S
C1435      O1439   1.282       .  A
C1436      C1508   1.510       .  S
C1438      C1554   1.503       .  S
C1440      C1458   1.511       .  S
C1441      C1504   1.502       .  S
C1441      O1442   1.283       .  A
N1443      C1447   1.356       .  A
N1443      C1444   1.364       .  A
C1444      C1445   1.384       .  A
C1444      C1586   1.509       .  S
C1445      C1446   1.391       .  A
C1445      H1448   1.082       .  S
C1446      C1447   1.385       .  A
C1446      H1449   1.082       .  S
C1447      C1491   1.503       .  S
N1450      C1454   1.355       .  A
N1450      C1451   1.364       .  A
N1450      C1759   1.421       .  S
C1451      C1452   1.384       .  A
C1451      C1486   1.507       .  S
C1452      C1453   1.390       .  A
C1452      H1455   1.082       .  S
C1453      C1454   1.385       .  A
C1453      H1456   1.082       .  S
N1457      C1461   1.357       .  A
N1457      C1458   1.366       .  A
N1457      C1725   1.421       .  S
C1458      C1459   1.385       .  A
C1459      C1460   1.389       .  A
C1459      H1462   1.082       .  S
C1460      C1461   1.384       .  A
C1460      H1463   1.082       .  S
C1461      C1591   1.503       .  S
C1464      N1465   1.352       .  A
C1464      C1769   1.468       .  S
C1466      N1467   1.353   1_554  A
C1466      C1747   1.468   1_554  S
N1467      C1468   1.352       .  A
C1468      N1469   1.353   1_556  A
C1468      C1737   1.466       .  S
O1470      C1486   1.292       .  A
O1470     Zn1476   2.126       .  S
C1471      C1511   1.505   1_545  S
C1471      O1484   1.278       .  A
O1472      C1485   1.290       .  A
O1473      C1491   1.280       .  A
O1473     Cd1482   2.107       .  S
O1474      C1488   1.282       .  A
O1475      C1486   1.279       .  A
O1475     Cd1478   2.078       .  S
Zn1476     O1487   2.104       .  S
Zn1476     O1489   2.056       .  S
Zn1476     O1481   1.937       .  S
O1477      C1488   1.279       .  A
O1477     Cd1482   2.107       .  S
Cd1478     O1481   1.984       .  S
Cd1479     O1483   2.100       .  S
Cd1479     O1492   2.130       .  S
O1480      C1490   1.288       .  A
O1483      C1490   1.282       .  A
C1485      O1489   1.282       .  A
C1490      C1494   1.512       .  S
C1491      O1492   1.284       .  A
N1493      C3353   1.355       .  A
N1493      C1494   1.364   1_655  A
N1493      C3095   1.418       .  S
C1494      C1495   1.385       .  A
C1495      C1496   1.391   1_455  A
C1495      H1498   1.082       .  S
C1496      C3353   1.385       .  A
C1496      H1499   1.082       .  S
C1497      N3349   1.355       .  A
C1497      C3352   1.385       .  A
C1497      C1538   1.505       .  S
N1500      C1504   1.356       .  A
N1500      C1501   1.363       .  A
N1500      C1693   1.420       .  S
C1501      C1502   1.384       .  A
C1501      C1535   1.509       .  S
C1502      C1503   1.390       .  A
C1502      H1505   1.082       .  S
C1503      C1504   1.385       .  A
C1503      H1506   1.082       .  S
N1507      C1511   1.356       .  A
N1507      C1508   1.364       .  A
N1507      C1659   1.419       .  S
C1508      C1509   1.384       .  A
C1509      C1510   1.391       .  A
C1509      H1512   1.082       .  S
C1510      C1511   1.386       .  A
C1510      H1513   1.082       .  S
C1514      N1515   1.352       .  A
C1514      N1519   1.352       .  A
C1514      C1681   1.467       .  S
N1515      C1516   1.352       .  A
C1516      N1517   1.350       .  A
C1516      C1715   1.467       .  S
N1517      C1518   1.352       .  A
C1518      N1519   1.352       .  A
C1518      C1671   1.467       .  S
O1520      C1536   1.291       .  A
O1520     Zn1526   2.127       .  S
C1521      O1537   1.284       .  A
C1521      O1534   1.278       .  A
O1522      C1535   1.289       .  A
O1522     Cd1529   2.143       .  S
O1523     Cd1532   2.107       .  S
O1524      C1538   1.284       .  A
O1524     Cd1528   2.135       .  S
O1525      C1536   1.281       .  A
O1525     Cd1528   2.088       .  S
Zn1526     O1537   2.103       .  S
Zn1526     O1539   2.055       .  S
Zn1526     O1531   1.936       .  S
O1527      C1538   1.279       .  A
O1527     Cd1532   2.106       .  S
Cd1528     O1530   2.159       .  S
Cd1528     O1531   1.985       .  S
Cd1529     O1533   2.095       .  S
Cd1529     O1542   2.124       .  S
Cd1529     O1531   1.990       .  S
O1530      C1540   1.291       .  A
O1531     Cd1532   1.940       .  S
Cd1532     O1534   2.099       .  S
O1533      C1540   1.280       .  A
C1535      O1539   1.281       .  A
C1536      C1544   1.510       .  S
C1541      C1561   1.502   1_554  S
N1543      C1547   1.354       .  A
N1543      C1544   1.363       .  A
N1543      C1637   1.418       .  S
C1544      C1545   1.384       .  A
C1545      C1546   1.393       .  A
C1545      H1548   1.082       .  S
C1546      C1547   1.386       .  A
C1546      H1549   1.082       .  S
C1547      C1588   1.503       .  S
N1550      C1554   1.357       .  A
N1550      C1551   1.365       .  A
N1550      C1627   1.421       .  S
C1551      C1552   1.385       .  A
C1551      C3441   1.511       .  S
C1552      C1553   1.389       .  A
C1552      H3411   1.082       .  S
C1553      C1554   1.385       .  A
C1553      H1556   1.082       .  S
H1555      C3408   1.082       .  S
N1557      C1561   1.357       .  A
N1557      C1558   1.365       .  A
N1557      C1593   1.422       .  S
C1558      C1559   1.385       .  A
C1559      C1560   1.389       .  A
C1559      H1562   1.082       .  S
C1560      C1561   1.384       .  A
C1560      H1563   1.082       .  S
C1564      N1565   1.350       .  A
C1564      N1569   1.352   1_565  A
C1564      C1605   1.466       .  S
N1565      C1566   1.352   1_565  A
C1566      C1615   1.467   1_545  S
N1567      C1568   1.354       .  A
C1568      C1649   1.469       .  S
O1570      C1586   1.292       .  A
O1570     Zn2504   2.124       .  S
C1571      O1587   1.284       .  A
C1571      O1584   1.279       .  A
O1572      C1585   1.289       .  A
O1572     Cd1579   2.146       .  S
O1573      C1591   1.279       .  A
O1574      C1588   1.284       .  A
O1574     Cd1578   2.134       .  S
O1575      C3442   1.280       .  A
O1575     Cd1578   2.085       .  S
Zn1576     O2498   2.124   1_565  S
Zn1576     O1589   2.056       .  S
Zn1576     O1581   1.937       .  S
O1577      C1588   1.279       .  A
O1577     Cd1582   2.104       .  S
Cd1579     O1583   2.094       .  S
Cd1579     O1592   2.124       .  S
Cd1579     O1581   1.985       .  S
O1580      C1590   1.290       .  A
Cd1582     O1584   2.100       .  S
O1583      C1590   1.282       .  A
C1585      C3407   1.511       .  S
C1585      O1589   1.281       .  A
C1586      O3431   1.280   1_455  A
C1591      O1592   1.283       .  A
C1593      C1594   1.389       .  A
C1593      C1598   1.395       .  A
C1594      C1595   1.380       .  A
C1594      H1607   1.074       .  S
C1595      C1596   1.409       .  A
C1595      H1608   1.078   1_556  S
C1596      C1602   1.411   1_556  A
C1596      C1597   1.421       .  A
C1597      C1599   1.398       .  A
C1597      C1598   1.399       .  A
C1598      H1609   1.084       .  S
C1599      C1600   1.390   1_556  A
C1599      H1610   1.084       .  S
C1600      C1601   1.401       .  A
C1600      H1611   1.083       .  S
C1601      C1602   1.418       .  A
C1603      C1604   1.383       .  A
C1603      H1612   1.078       .  S
C1604      C1605   1.401       .  A
C1604      H1613   1.082       .  S
C1605      C1606   1.401       .  A
C1606      H1614   1.084       .  S
C1615      C1616   1.401       .  A
C1615      C1620   1.402   1_565  A
C1616      C1617   1.383       .  A
C1616      H1629   1.083       .  S
C1617      C1618   1.409       .  A
C1617      H1630   1.079       .  S
C1618      C1624   1.410       .  A
C1618      C1619   1.417       .  A
C1619      C1621   1.401   1_565  A
C1619      C1620   1.397   1_565  A
C1621      C1622   1.391   1_545  A
C1622      C1623   1.398       .  A
C1622      H1633   1.084   1_565  S
C1623      C1624   1.421       .  A
C1623      C1628   1.400       .  A
C1624      C1625   1.408       .  A
C1625      C1626   1.379       .  A
C1625      H1634   1.079       .  S
C1626      C1627   1.388       .  A
C1626      H1635   1.072       .  S
C1627      C1628   1.396       .  A
C1628      H1636   1.084       .  S
C1637      C1638   1.392       .  A
C1637      C1642   1.387       .  A
C1638      C1639   1.393       .  A
C1638      H1651   1.083       .  S
C1639      C1640   1.418       .  A
C1639      H1652   1.077       .  S
C1640      C1646   1.419       .  A
C1640      C1641   1.421       .  A
C1641      C1643   1.395       .  A
C1641      C1642   1.387       .  A
C1642      H1653   1.080       .  S
C1643      C1644   1.381       .  A
C1643      H1654   1.082       .  S
C1644      C1645   1.396       .  A
C1644      H1655   1.084       .  S
C1645      C1646   1.422       .  A
C1645      C1650   1.391       .  A
C1646      C1647   1.411       .  A
C1647      C1648   1.389       .  A
C1647      H1656   1.077       .  S
C1648      C1649   1.401       .  A
C1648      H1657   1.083       .  S
C1649      C1650   1.398       .  A
C1650      H1658   1.085       .  S
C1659      C1660   1.386       .  A
C1659      C1664   1.395       .  A
C1660      C1661   1.379       .  A
C1660      H1673   1.073       .  S
C1661      C1662   1.409       .  A
C1661      H1674   1.077       .  S
C1662      C1668   1.412       .  A
C1662      C1663   1.423       .  A
C1663      C1664   1.400       .  A
C1664      H1675   1.084       .  S
C1665      C1666   1.390       .  A
C1665      H1676   1.084       .  S
C1666      C1667   1.400       .  A
C1666      H1677   1.084       .  S
C1667      C1672   1.396       .  A
C1668      C1669   1.410       .  A
C1669      H1678   1.077       .  S
C1670      C1671   1.400       .  A
C1671      C1672   1.402       .  A
C1672      H1680   1.084       .  S
C1681      C1682   1.398       .  A
C1681      C1686   1.400       .  A
C1682      C1683   1.388       .  A
C1682      H1695   1.082       .  S
C1683      C1684   1.411       .  A
C1683      H1696   1.077       .  S
C1684      C1690   1.418       .  A
C1684      C1685   1.421       .  A
C1685      C1687   1.397       .  A
C1685      C1686   1.393       .  A
C1686      H1697   1.084       .  S
C1687      C1688   1.383       .  A
C1687      H1698   1.084       .  S
C1688      C1689   1.396       .  A
C1688      H1699   1.084       .  S
C1689      C1690   1.422       .  A
C1689      C1694   1.389       .  A
C1690      C1691   1.417       .  A
C1691      C1692   1.391       .  A
C1691      H1700   1.077       .  S
C1692      C1693   1.393       .  A
C1692      H1701   1.083       .  S
C1693      C1694   1.388       .  A
C1694      H1702   1.079       .  S
C1703      N2885   1.418       .  S
C1703      C1704   1.392       .  A
C1703      C1708   1.386   1_554  A
C1704      C1705   1.392   1_554  A
C1704      H3109   1.083       .  S
C1705      C1706   1.417       .  A
C1705      H1718   1.077       .  S
C1706      C1712   1.418       .  A
C1706      C1707   1.421       .  A
C1707      C1709   1.395       .  A
C1707      C1708   1.386       .  A
C1708      H1719   1.079       .  S
C1709      C1710   1.380       .  A
C1709      H1720   1.083       .  S
C1710      C1711   1.396       .  A
C1710      H1721   1.084       .  S
C1711      C1712   1.421       .  A
C1711      C1716   1.390       .  A
C1712      C1713   1.411       .  A
C1713      C1714   1.389       .  A
C1713      H1722   1.077       .  S
C1714      C1715   1.399       .  A
C1714      H1723   1.082       .  S
C1715      C1716   1.399       .  A
C1716      H1724   1.084       .  S
H1717      C3096   1.083       .  S
C1725      C1726   1.388       .  A
C1725      C1730   1.398       .  A
C1726      C1727   1.376       .  A
C1726      H1739   1.074       .  S
C1727      C1728   1.406       .  A
C1727      H1740   1.080       .  S
C1728      C1734   1.404       .  A
C1728      C1729   1.419       .  A
C1729      C1731   1.400       .  A
C1729      C1730   1.401       .  A
C1730      H1741   1.084       .  S
C1731      C1732   1.394       .  A
C1731      H1742   1.084       .  S
C1732      C1733   1.402       .  A
C1732      H1743   1.084       .  S
C1733      C1734   1.415       .  A
C1733      C1738   1.398       .  A
C1734      C1735   1.407       .  A
C1735      C1736   1.378       .  A
C1735      H1744   1.079       .  S
C1736      C1737   1.401       .  A
C1736      H1745   1.083       .  S
C1737      C1738   1.404       .  A
C1738      H1746   1.083       .  S
C1747      C3604   1.399   1_556  A
C1747      C1752   1.399       .  A
C1748      C3603   1.399   1_454  A
C1748      C1749   1.389   1_554  A
C1748      H1761   1.082       .  S
C1749      C1750   1.411       .  A
C1749      H1762   1.077   1_556  S
C1750      C1756   1.419       .  A
C1750      C1751   1.422       .  A
C1751      C3609   1.397       .  A
C1751      C3608   1.392   1_455  A
C1752      C3607   1.392       .  A
C1752      H1763   1.084       .  S
C1753      C3607   1.397       .  A
C1753      C3610   1.382       .  A
C1753      H1764   1.084       .  S
C1754      C3609   1.382       .  A
C1754      C1755   1.396       .  A
C1754      H1765   1.083       .  S
C1755      C1756   1.421       .  A
C1755      C1760   1.389       .  A
C1756      C1757   1.417       .  A
C1757      C1758   1.393       .  A
C1757      H1766   1.077       .  S
C1758      C1759   1.393       .  A
C1758      H1767   1.083       .  S
C1759      C1760   1.387       .  A
C1760      H1768   1.078       .  S
C1769      C1770   1.400       .  A
C1769      C1774   1.399       .  A
C1770      C1771   1.391       .  A
C1770      H1783   1.083       .  S
C1771      C1772   1.412       .  A
C1771      H1784   1.077       .  S
C1772      C3634   1.420       .  A
C1772      C3629   1.421       .  A
C1773      C3628   1.421       .  A
C1773      C1775   1.397   1_655  A
C1773      C3630   1.391       .  A
C1774      C3629   1.391       .  A
C1774      H3177   1.084       .  S
C1775      C1776   1.381       .  A
C1775      H1786   1.084       .  S
C1776      C1777   1.396       .  A
C1776      H1787   1.083       .  S
C1777      C1778   1.422   1_455  A
C1777      C1782   1.388       .  A
C1778      C3628   1.420       .  A
C1778      C3635   1.417       .  A
C1779      C3634   1.417       .  A
C1779      C3636   1.394   1_565  A
C1779      H1788   1.077       .  S
C1780      C3635   1.394   1_545  A
C1780      C1781   1.394   1_655  A
C1780      H3645   1.083       .  S
C1781      C1782   1.386   1_545  A
C1782      H1790   1.077       .  S
H1785      C3166   1.084       .  S
H1789      C3636   1.083       .  S
C1791      C1792   1.399       .  A
C1791      C1796   1.400       .  A
C1792      C1793   1.389       .  A
C1792      H1805   1.083       .  S
C1793      C1794   1.411       .  A
C1793      H3662   1.077   1_455  S
C1794      C3656   1.418   1_455  A
C1794      C1795   1.421       .  A
C1795      C1797   1.397       .  A
C1795      C1796   1.391       .  A
C1796      H1807   1.084       .  S
C1797      C1798   1.382       .  A
C1797      H1808   1.084       .  S
C1798      C3655   1.396   1_455  A
C1798      H1809   1.082       .  S
C1799      C3654   1.396       .  A
C1799      C1800   1.421       .  A
C1799      C1804   1.389       .  A
C1800      C3650   1.418       .  A
C1800      C1801   1.417       .  A
C1801      C1802   1.392       .  A
C1801      H1810   1.077       .  S
C1802      C1803   1.392       .  A
C1802      H1811   1.083       .  S
C1803      C1804   1.388       .  A
C1804      H1812   1.079       .  S
H1806      C3649   1.077       .  S
C1813      C1814   1.398       .  A
C1813      C1818   1.400       .  A
C1814      C1815   1.387       .  A
C1814      H1827   1.083       .  S
C1815      C1816   1.411       .  A
C1815      H1828   1.077       .  S
C1816      C1822   1.417       .  A
C1816      C1817   1.421       .  A
C1817      C1819   1.398       .  A
C1817      C1818   1.393       .  A
C1818      H1829   1.084       .  S
C1819      C1820   1.383       .  A
C1819      H1830   1.084       .  S
C1820      C1821   1.396       .  A
C1820      H1831   1.083   1_455  S
C1821      C1822   1.421       .  A
C1821      C1826   1.389       .  A
C1822      C1823   1.417       .  A
C1823      C1824   1.392       .  A
C1823      H1832   1.077       .  S
C1824      C1825   1.391       .  A
C1824      H1833   1.083       .  S
C1825      C1826   1.387       .  A
C1826      H1834   1.077   1_455  S
C1835      C1836   1.401       .  A
C1835      C1840   1.402       .  A
C1836      C1837   1.382       .  A
C1836      H1849   1.083       .  S
C1837      C1838   1.408       .  A
C1837      H1850   1.079       .  S
C1838      C1844   1.407       .  A
C1838      C1839   1.415       .  A
C1839      C1841   1.402       .  A
C1839      C1840   1.396       .  A
C1840      H1851   1.083       .  S
C1841      C1842   1.393       .  A
C1841      H1852   1.083       .  S
C1842      C1843   1.399       .  A
C1842      H1853   1.084       .  S
C1843      C1844   1.419       .  A
C1843      C1848   1.400       .  A
C1844      C1845   1.407       .  A
C1845      C1846   1.379       .  A
C1845      H1854   1.080       .  S
C1846      C1847   1.391       .  A
C1846      H1855   1.076       .  S
C1847      C1848   1.397       .  A
C1848      H1856   1.084       .  S
N1857      C1861   1.357       .  A
N1857      C1858   1.368       .  A
N1857      C2311   1.424       .  S
C1858      C1859   1.385       .  A
C1858      C2004   1.514       .  S
C1859      C1860   1.389   1_554  A
C1859      H1862   1.082       .  S
C1860      C1861   1.384   1_556  A
C1860      H2327   1.082       .  S
C1861      C1952   1.503       .  S
H1863      C2324   1.082       .  S
N1864      C1865   1.363       .  A
N1864      C2289   1.418       .  S
C1865      C1866   1.384       .  A
C1865      C1949   1.509       .  S
C1866      H2797   1.082   1_545  S
C1867      C1868   1.385   1_565  A
C1867      H2798   1.082       .  S
C1868      C2035   1.504       .  S
H1869      C2794   1.082       .  S
H1870      C2795   1.082       .  S
N1871      C1875   1.355       .  A
N1871      C1872   1.362       .  A
N1871      C2267   1.418       .  S
C1872      C1873   1.384       .  A
C1872      C2054   1.510       .  S
C1873      C1874   1.392       .  A
C1873      H1876   1.082       .  S
C1874      C1875   1.386       .  A
C1874      H1877   1.082       .  S
C1875      C1985   1.504       .  S
C1878      N1879   1.353       .  A
C1878      N1883   1.352       .  A
C1878      C2255   1.467       .  S
N1879      C1880   1.351       .  A
C1880      N1881   1.352       .  A
C1880      C2299   1.466       .  S
N1881      C1882   1.351       .  A
C1882      N1883   1.352       .  A
C1882      C2277   1.466       .  S
O1884      C1900   1.292       .  A
O1884     Zn1890   2.130       .  S
C1885      C1918   1.502       .  S
C1885      O1901   1.284       .  A
C1885      O1898   1.278       .  A
O1886      C1899   1.289       .  A
O1886     Cd1893   2.146       .  S
O1887      C1905   1.280       .  A
O1887     Cd1896   2.107       .  S
O1888      C1902   1.283       .  A
O1888     Cd1892   2.128       .  S
O1889      C1900   1.279       .  A
O1889     Cd1892   2.081       .  S
Zn1890     O1901   2.099       .  S
Zn1890     O1903   2.057       .  S
Zn1890     O1895   1.935       .  S
O1891      C1902   1.279       .  A
O1891     Cd1896   2.106       .  S
Cd1892     O1894   2.148       .  S
Cd1892     O1895   1.984       .  S
Cd1893     O1897   2.098       .  S
Cd1893     O1906   2.127       .  S
Cd1893     O1895   1.988       .  S
O1894      C1904   1.290       .  A
O1895     Cd1896   1.940       .  S
Cd1896     O1898   2.096       .  S
O1897      C1904   1.281       .  A
C1899      C2022   1.511       .  S
C1899      O1903   1.282       .  A
C1900      C1972   1.510       .  S
C1902      C2018   1.503       .  S
C1904      C1922   1.511       .  S
C1905      C1968   1.502       .  S
C1905      O1906   1.283       .  A
N1907      C1911   1.356       .  A
N1907      C1908   1.364       .  A
N1907      C3173   1.421       .  S
C1908      C1909   1.384       .  A
C1908      C2050   1.509       .  S
C1909      C1910   1.390       .  A
C1909      H1912   1.082       .  S
C1910      C1911   1.385       .  A
C1910      H1913   1.082       .  S
C1911      C1955   1.503       .  S
N1914      C1918   1.355       .  A
N1914      C1915   1.364       .  A
N1914      C2223   1.421       .  S
C1915      C1916   1.384       .  A
C1915      C1950   1.507       .  S
C1916      C1917   1.390       .  A
C1916      H1919   1.082       .  S
C1917      C1918   1.385       .  A
C1917      H1920   1.082       .  S
N1921      C1925   1.357       .  A
N1921      C1922   1.366       .  A
N1921      C2189   1.420       .  S
C1922      C1923   1.385       .  A
C1923      C1924   1.389       .  A
C1923      H1926   1.082       .  S
C1924      C1925   1.384       .  A
C1924      H1927   1.082       .  S
C1925      C2055   1.503       .  S
C1928      N1929   1.352       .  A
C1928      N2397   1.350       .  A
C1928      C2233   1.468       .  S
N1929      C2394   1.352       .  A
C1930      N2393   1.352       .  A
C1930      N1931   1.353       .  A
C1930      C2211   1.468       .  S
N1931      C1932   1.352       .  A
C1932      N1933   1.353       .  A
C1932      C2201   1.466       .  S
N1933      C2392   1.350       .  A
O1934      C1950   1.292       .  A
O1934     Zn1940   2.126       .  S
C1935      C1975   1.504       .  S
C1935      O2879   1.285       .  A
C1935      O1948   1.278       .  A
O1936      C1949   1.290       .  A
O1936     Cd2407   2.148       .  S
O1937      C1955   1.280       .  A
O1937     Cd1946   2.107       .  S
O1938      C1952   1.282       .  A
O1938     Cd2406   2.121   1_554  S
O1939      C1950   1.279       .  A
O1939     Cd1942   2.078       .  S
Zn1940     O1951   2.104       .  S
Zn1940     O1953   2.056       .  S
Zn1940     O1945   1.937       .  S
O1941      C1952   1.279       .  A
O1941     Cd1946   2.108       .  S
Cd1942     O2402   2.121       .  S
Cd1942     O2408   2.146       .  S
Cd1942     O1945   1.984       .  S
Cd1943     O2400   2.148       .  S
Cd1943     O1947   2.101   1_556  S
Cd1943     O1956   2.129   1_556  S
Cd1943     O2409   1.983       .  S
O1944      C1954   1.288       .  A
O1944     Cd2406   2.146   1_554  S
O1945     Cd2407   1.983       .  S
O1945     Cd2410   1.942       .  S
Cd1946     O3340   2.098   1_554  S
Cd1946     O2409   1.942   1_554  S
O1947      C1954   1.282       .  A
O1948     Cd3338   2.097       .  S
C1949      O1953   1.282       .  A
O1951      C2863   1.285       .  A
C1954      C1958   1.512       .  S
C1955      O1956   1.283       .  A
N1957      C1958   1.364       .  A
C1958      C1959   1.385       .  A
C1959      C1960   1.391       .  A
C1959      H1962   1.082       .  S
C1960      H1963   1.082       .  S
C1961      C2002   1.505       .  S
N1964      C1968   1.356       .  A
N1964      C1965   1.363       .  A
N1964      C2157   1.420       .  S
C1965      C1966   1.384       .  A
C1965      C1999   1.510       .  S
C1966      C1967   1.390       .  A
C1966      H1969   1.082       .  S
C1967      C1968   1.385       .  A
C1967      H1970   1.082       .  S
N1971      C1975   1.356       .  A
N1971      C1972   1.364       .  A
N1971      C2123   1.419       .  S
C1972      C1973   1.384       .  A
C1973      C1974   1.391       .  A
C1973      H1976   1.082       .  S
C1974      C1975   1.386       .  A
C1974      H1977   1.082       .  S
C1978      N1979   1.352       .  A
C1978      N1983   1.352       .  A
C1978      C2145   1.466       .  S
N1979      C1980   1.352       .  A
C1980      N1981   1.350       .  A
C1980      C2179   1.467       .  S
N1981      C1982   1.352       .  A
C1982      N1983   1.352       .  A
C1982      C2135   1.466       .  S
O1984      C2000   1.292       .  A
O1984     Zn1990   2.128       .  S
C1985      O2001   1.284       .  A
C1985      O1998   1.278       .  A
O1986      C1999   1.289       .  A
O1986     Cd1993   2.143       .  S
O1987      C2469   1.279       .  A
O1987     Cd1996   2.107       .  S
O1988      C2002   1.284       .  A
O1988     Cd1992   2.134       .  S
O1989      C2000   1.281       .  A
O1989     Cd1992   2.087       .  S
Zn1990     O2001   2.104       .  S
Zn1990     O2003   2.056       .  S
Zn1990     O1995   1.935       .  S
O1991      C2002   1.279       .  A
O1991     Cd1996   2.106       .  S
Cd1992     O1994   2.159       .  S
Cd1992     O1995   1.985       .  S
Cd1993     O1997   2.095       .  S
Cd1993     O2006   2.124       .  S
Cd1993     O1995   1.989       .  S
O1994      C2004   1.291       .  A
O1995     Cd1996   1.940       .  S
Cd1996     O1998   2.098       .  S
O1997      C2004   1.280       .  A
C1999      O2003   1.281       .  A
C2000      C2008   1.510       .  S
C2005      C2025   1.502       .  S
C2005      O2451   1.279       .  A
C2005      O2470   1.282       .  A
O2006      C2469   1.282       .  A
N2007      C2011   1.354       .  A
N2007      C2008   1.363       .  A
N2007      C2101   1.418       .  S
C2008      C2009   1.384       .  A
C2009      C2010   1.393       .  A
C2009      H2012   1.082       .  S
C2010      C2011   1.386       .  A
C2010      H2013   1.082       .  S
C2011      C2052   1.503       .  S
N2014      C2018   1.357       .  A
N2014      C2015   1.365       .  A
N2014      C2091   1.421       .  S
C2015      C2016   1.385       .  A
C2016      C2017   1.389       .  A
C2017      C2018   1.385       .  A
C2017      H2020   1.082       .  S
N2021      C2025   1.357       .  A
N2021      C2022   1.365       .  A
N2021      C2057   1.422       .  S
C2022      C2023   1.385       .  A
C2023      C2024   1.389       .  A
C2023      H2026   1.082       .  S
C2024      C2025   1.384       .  A
C2024      H2027   1.082       .  S
C2028      N2029   1.350       .  A
C2028      N2033   1.351       .  A
C2028      C2069   1.466       .  S
N2029      C2030   1.352       .  A
C2030      N2959   1.353       .  A
C2030      C2079   1.467       .  S
N2031      C2958   1.353       .  A
N2031      C2032   1.354       .  A
C2032      N2961   1.352       .  A
C2032      C2113   1.469       .  S
N2033      C2960   1.352       .  A
O2034      C2050   1.292       .  A
C2035      O2051   1.284   1_655  A
C2035      O2048   1.279       .  A
O2036      C2049   1.289   1_655  A
O2036     Cd2043   2.147       .  S
O2037      C2055   1.279       .  A
O2037     Cd2974   2.107       .  S
O2038      C2052   1.284       .  A
O2038     Cd2042   2.134   1_545  S
O2039     Cd2042   2.085   1_545  S
Zn2040     O2979   2.099       .  S
Zn2040     O2053   2.056       .  S
Zn2040     O2045   1.937   1_455  S
O2041      C2052   1.279       .  A
O2041     Cd2046   2.104       .  S
Cd2042     O2972   2.153       .  S
Cd2042     O2973   1.987       .  S
Cd2043     O2047   2.094       .  S
Cd2043     O2056   2.125       .  S
Cd2043     O2045   1.984       .  S
O2044      C2054   1.289       .  A
O2044     Cd2970   2.152       .  S
O2045     Cd2970   1.987       .  S
O2045     Cd2974   1.941       .  S
Cd2046     O2965   2.107   1_545  S
Cd2046     O2048   2.100       .  S
Cd2046     O2973   1.941   1_545  S
O2047      C2054   1.282       .  A
C2049      O2053   1.281       .  A
O2051     Zn2968   2.099   1_545  S
C2055      O2056   1.283       .  A
C2057      C2058   1.389       .  A
C2057      C2062   1.395       .  A
C2058      C2059   1.380       .  A
C2058      H2071   1.073       .  S
C2059      C2060   1.409       .  A
C2059      H2072   1.078       .  S
C2060      C2066   1.411       .  A
C2060      C2061   1.421       .  A
C2061      C2063   1.398       .  A
C2061      C2062   1.399       .  A
C2062      H2073   1.084       .  S
C2063      C2064   1.390       .  A
C2063      H2074   1.084       .  S
C2064      C2065   1.401       .  A
C2064      H2075   1.084       .  S
C2065      C2066   1.417       .  A
C2065      C2534   1.397       .  A
C2066      C2531   1.410       .  A
C2067      C2530   1.410       .  A
C2067      C2068   1.383       .  A
C2067      H2076   1.078   1_554  S
C2068      C2069   1.401       .  A
C2068      H2077   1.082       .  S
C2069      C2070   1.401       .  A
C2070      C2529   1.397       .  A
C2070      H2078   1.084       .  S
C2079      C2080   1.401       .  A
C2079      C2084   1.402       .  A
C2080      C2081   1.383       .  A
C2080      H2093   1.083       .  S
C2081      C2082   1.409       .  A
C2081      H2094   1.079       .  S
C2082      C2088   1.410       .  A
C2082      C2083   1.416       .  A
C2083      C2085   1.401       .  A
C2083      C2084   1.397       .  A
C2084      H3023   1.083       .  S
C2085      C2086   1.391       .  A
C2085      H3024   1.083       .  S
C2086      C2087   1.398       .  A
C2086      H2097   1.084       .  S
C2087      C2088   1.421       .  A
C2087      C2092   1.400       .  A
C2088      C2089   1.408       .  A
C2089      C2090   1.379       .  A
C2089      H2098   1.079       .  S
C2090      C2091   1.388       .  A
C2090      H2099   1.072       .  S
C2091      C2092   1.396       .  A
C2092      H2100   1.084       .  S
H2095      C3012   1.083       .  S
H2096      C3013   1.083       .  S
C2101      C2102   1.392       .  A
C2101      C2106   1.386       .  A
C2102      C2103   1.393       .  A
C2102      H2115   1.083       .  S
C2103      C2104   1.418       .  A
C2103      H2116   1.077       .  S
C2104      C2110   1.419       .  A
C2104      C2105   1.421       .  A
C2105      C2107   1.395       .  A
C2105      C2106   1.387       .  A
C2106      H2117   1.080       .  S
C2107      C2108   1.381       .  A
C2107      H2118   1.082       .  S
C2108      C2109   1.396       .  A
C2108      H2119   1.084       .  S
C2109      C2110   1.422       .  A
C2109      C2114   1.391       .  A
C2110      C2111   1.411       .  A
C2111      C2112   1.389       .  A
C2111      H2120   1.077       .  S
C2112      C2113   1.401       .  A
C2112      H2121   1.083       .  S
C2113      C2114   1.398       .  A
C2114      H2122   1.085       .  S
C2123      C2124   1.386       .  A
C2123      C2128   1.395       .  A
C2124      C2125   1.378       .  A
C2124      H2137   1.073       .  S
C2125      C2126   1.409       .  A
C2125      H2138   1.077       .  S
C2126      C2132   1.412       .  A
C2126      C2127   1.423       .  A
C2127      C3057   1.398       .  A
C2127      C2128   1.400       .  A
C2128      H2139   1.084       .  S
C2129      C3055   1.398       .  A
C2129      C2130   1.390   1_565  A
C2129      H2140   1.084       .  S
C2130      C2131   1.400       .  A
C2130      H2141   1.084       .  S
C2131      C3060   1.418   1_545  A
C2131      C2136   1.396       .  A
C2132      C3059   1.418       .  A
C2132      C2133   1.410       .  A
C2133      C3062   1.381       .  A
C2133      H2142   1.077       .  S
C2134      C3061   1.381   1_545  A
C2134      C2135   1.400       .  A
C2134      H3071   1.083   1_545  S
C2135      C2136   1.402       .  A
C2136      H2144   1.084       .  S
H2143      C3062   1.083       .  S
C2145      C2146   1.398       .  A
C2145      C2150   1.400       .  A
C2146      C2147   1.388       .  A
C2146      H2159   1.082       .  S
C2147      C2148   1.411       .  A
C2147      H2160   1.077       .  S
C2148      C2154   1.418       .  A
C2148      C2149   1.421       .  A
C2149      C2151   1.397       .  A
C2149      C2150   1.393       .  A
C2150      H2161   1.084       .  S
C2151      C2152   1.383       .  A
C2151      H2162   1.084       .  S
C2152      C2153   1.396       .  A
C2152      H2163   1.084       .  S
C2153      C2154   1.422       .  A
C2153      C2158   1.389       .  A
C2154      C2155   1.416       .  A
C2155      C2156   1.391       .  A
C2155      H2164   1.077       .  S
C2156      C2157   1.392       .  A
C2156      H2165   1.083       .  S
C2157      C2158   1.388       .  A
C2158      H2166   1.079       .  S
C2167      C2168   1.392       .  A
C2167      C2172   1.386       .  A
C2168      C2169   1.392       .  A
C2169      C2170   1.417       .  A
C2169      H2182   1.077       .  S
C2170      C2176   1.418       .  A
C2170      C2171   1.421       .  A
C2171      C2173   1.395       .  A
C2171      C2172   1.386       .  A
C2172      H2183   1.079       .  S
C2173      C2174   1.380       .  A
C2173      H2184   1.083       .  S
C2174      C2175   1.396       .  A
C2174      H2185   1.084       .  S
C2175      C2176   1.421       .  A
C2175      C2180   1.390       .  A
C2176      C2177   1.411       .  A
C2177      C2178   1.389       .  A
C2177      H2186   1.077       .  S
C2178      C2179   1.399       .  A
C2178      H2187   1.082       .  S
C2179      C2180   1.399       .  A
C2180      H2188   1.084       .  S
C2189      C2190   1.388       .  A
C2189      C2194   1.398       .  A
C2190      C2191   1.376       .  A
C2190      H2203   1.074       .  S
C2191      C2192   1.406       .  A
C2191      H2204   1.080       .  S
C2192      C2198   1.405       .  A
C2192      C2193   1.419       .  A
C2193      C2195   1.400       .  A
C2193      C2194   1.401       .  A
C2194      H2205   1.084       .  S
C2195      C2196   1.394       .  A
C2195      H2206   1.084       .  S
C2196      C2197   1.402       .  A
C2196      H2207   1.084       .  S
C2197      C2198   1.415       .  A
C2197      C2202   1.397       .  A
C2198      C2199   1.407       .  A
C2199      C2200   1.378       .  A
C2199      H2208   1.079       .  S
C2200      C2201   1.401       .  A
C2200      H2209   1.083       .  S
C2201      C2202   1.404       .  A
C2202      H2210   1.083       .  S
C2211      C2216   1.400       .  A
C2212      C2213   1.389       .  A
C2212      H2225   1.082       .  S
C2213      C2214   1.411       .  A
C2213      H2226   1.077       .  S
C2214      C2220   1.419       .  A
C2214      C2215   1.422       .  A
C2216      H2227   1.084       .  S
C2217      H2228   1.084   1_455  S
C2218      C2219   1.396       .  A
C2218      H2229   1.083       .  S
C2219      C2220   1.421       .  A
C2219      C2224   1.389       .  A
C2220      C2221   1.417       .  A
C2221      C2222   1.393       .  A
C2221      H2230   1.077       .  S
C2222      C2223   1.393       .  A
C2222      H2231   1.083       .  S
C2223      C2224   1.387       .  A
C2224      H2232   1.078       .  S
C2233      C2234   1.400       .  A
C2233      C2238   1.399       .  A
C2234      C2235   1.391       .  A
C2234      H2247   1.083       .  S
C2235      C2236   1.412       .  A
C2235      H2248   1.077       .  S
C2237      C2239   1.397       .  A
C2239      C2240   1.381       .  A
C2239      H2250   1.084       .  S
C2240      C2241   1.396       .  A
C2240      H2251   1.083       .  S
C2241      C2242   1.422       .  A
C2241      C2246   1.389       .  A
C2243      H2252   1.077       .  S
C2244      C2245   1.394       .  A
C2245      N2835   1.421       .  S
C2245      C2246   1.386       .  A
C2246      H2254   1.078       .  S
C2255      C2256   1.399       .  A
C2255      C2260   1.400       .  A
C2256      C2257   1.389       .  A
C2256      H2269   1.083       .  S
C2257      C2258   1.411       .  A
C2258      C2259   1.421       .  A
C2259      C2261   1.397       .  A
C2259      C2260   1.391       .  A
C2260      H2271   1.084       .  S
C2261      C2262   1.382       .  A
C2261      H2272   1.084       .  S
C2262      H2273   1.082       .  S
C2263      C2264   1.421       .  A
C2263      C2268   1.389       .  A
C2264      C2265   1.417       .  A
C2265      C2266   1.392       .  A
C2265      H2274   1.077       .  S
C2266      C2267   1.392       .  A
C2266      H2275   1.083       .  S
C2267      C2268   1.388       .  A
C2268      H2276   1.080       .  S
C2277      C2278   1.398       .  A
C2277      C2282   1.400       .  A
C2278      C2279   1.387       .  A
C2278      H2291   1.083       .  S
C2279      C2280   1.411       .  A
C2279      H2292   1.077       .  S
C2280      C2286   1.417       .  A
C2280      C2281   1.421       .  A
C2281      C2283   1.398       .  A
C2281      C2282   1.393       .  A
C2282      H2293   1.084       .  S
C2283      C2284   1.383       .  A
C2283      H2294   1.084       .  S
C2284      C2285   1.396       .  A
C2284      H2295   1.083       .  S
C2285      C2286   1.421       .  A
C2285      C2290   1.389       .  A
C2286      C2287   1.417       .  A
C2287      C2288   1.392       .  A
C2287      H2296   1.077       .  S
C2288      C2289   1.391       .  A
C2288      H2297   1.083       .  S
C2289      C2290   1.387       .  A
C2290      H2298   1.077       .  S
C2299      C2300   1.401       .  A
C2299      C2304   1.402       .  A
C2300      C2301   1.383       .  A
C2300      H2313   1.083       .  S
C2301      C2302   1.408       .  A
C2301      H2314   1.079       .  S
C2302      C2308   1.407       .  A
C2302      C2303   1.415       .  A
C2303      C2305   1.402       .  A
C2303      C2304   1.396       .  A
C2304      H2315   1.083       .  S
C2305      C2306   1.392       .  A
C2305      H2316   1.083       .  S
C2306      C2307   1.399       .  A
C2306      H2317   1.084       .  S
C2307      C2308   1.419       .  A
C2307      C2312   1.400       .  A
C2308      C2309   1.407       .  A
C2309      C2310   1.379       .  A
C2309      H2318   1.080       .  S
C2310      C2311   1.391       .  A
C2310      H2319   1.076       .  S
C2311      C2312   1.397       .  A
C2312      H2320   1.084       .  S
N2321      C2325   1.358       .  A
N2321      C2322   1.368       .  A
N2321      C2775   1.424       .  S
C2322      C2323   1.385       .  A
C2322      C2468   1.514       .  S
C2323      C2324   1.389       .  A
C2323      H2326   1.082       .  S
C2324      C2325   1.384       .  A
C2325      C2416   1.503       .  S
N2328      C2329   1.363       .  A
N2328      C2753   1.418       .  S
C2329      C2330   1.384       .  A
C2329      C2413   1.509       .  S
C2330      H3261   1.082   1_545  S
C2331      C2332   1.385   1_565  A
C2331      H3262   1.082       .  S
C2332      C2499   1.504       .  S
H2333      C3258   1.082       .  S
H2334      C3259   1.082       .  S
N2335      C2339   1.355       .  A
N2335      C2336   1.363       .  A
N2335      C2731   1.418       .  S
C2336      C2337   1.384       .  A
C2336      C2518   1.510       .  S
C2337      C2338   1.391       .  A
C2337      H2340   1.082       .  S
C2338      C2339   1.386       .  A
C2338      H2341   1.082       .  S
C2339      C2449   1.504       .  S
C2342      N2343   1.353       .  A
C2342      N2347   1.352       .  A
C2342      C2719   1.467       .  S
N2343      C2344   1.351       .  A
C2344      N2345   1.352       .  A
C2344      C2763   1.466       .  S
N2345      C2346   1.351       .  A
C2346      N2347   1.352       .  A
C2346      C2741   1.466       .  S
O2348      C2364   1.292       .  A
O2348     Zn2354   2.130       .  S
C2349      C2382   1.502       .  S
C2349      O2365   1.284       .  A
C2349      O2362   1.278       .  A
O2350      C2363   1.289       .  A
O2350     Cd2357   2.146       .  S
O2351      C2369   1.280       .  A
O2351     Cd2360   2.107       .  S
O2352      C2366   1.283       .  A
O2352     Cd2356   2.128       .  S
O2353      C2364   1.279       .  A
O2353     Cd2356   2.081       .  S
Zn2354     O2365   2.098       .  S
Zn2354     O2367   2.057       .  S
Zn2354     O2359   1.935       .  S
O2355      C2366   1.279       .  A
O2355     Cd2360   2.107       .  S
Cd2356     O2358   2.148       .  S
Cd2356     O2359   1.984       .  S
Cd2357     O2361   2.098       .  S
Cd2357     O2370   2.127       .  S
Cd2357     O2359   1.988       .  S
O2358      C2368   1.290       .  A
O2359     Cd2360   1.939       .  S
Cd2360     O2362   2.096       .  S
O2361      C2368   1.281       .  A
C2363      C2486   1.510       .  S
C2363      O2367   1.281       .  A
C2364      C2436   1.510       .  S
C2366      C2482   1.503       .  S
C2368      C2386   1.511       .  S
C2369      C2432   1.502       .  S
C2369      O2370   1.283       .  A
N2371      C2375   1.356       .  A
N2371      C2372   1.364       .  A
N2371      C3637   1.421       .  S
C2372      C2373   1.384       .  A
C2372      C2514   1.509       .  S
C2373      C2374   1.391       .  A
C2373      H2376   1.082       .  S
C2374      C2375   1.385       .  A
C2374      H2377   1.082       .  S
C2375      C2419   1.503       .  S
N2378      C2382   1.355       .  A
N2378      C2379   1.364       .  A
N2378      C2687   1.421       .  S
C2379      C2380   1.384       .  A
C2379      C2414   1.507       .  S
C2380      C2381   1.390       .  A
C2380      H2383   1.082       .  S
C2381      C2382   1.385       .  A
C2381      H2384   1.082       .  S
N2385      C2389   1.357       .  A
N2385      C2386   1.366       .  A
N2385      C2653   1.421       .  S
C2386      C2387   1.385       .  A
C2387      C2388   1.389       .  A
C2387      H2390   1.082       .  S
C2388      C2389   1.384       .  A
C2388      H2391   1.082       .  S
C2389      C2519   1.503       .  S
C2392      N2393   1.352       .  A
C2392      C2697   1.468       .  S
C2394      N2395   1.353   1_554  A
C2394      C2675   1.468   1_554  S
N2395      C2396   1.352       .  A
C2396      N2397   1.353   1_556  A
C2396      C2665   1.466       .  S
O2398      C2414   1.292       .  A
O2398     Zn2404   2.127       .  S
C2399      C2439   1.504       .  S
C2399      O3343   1.285       .  A
C2399      O2412   1.278       .  A
O2400      C2413   1.290       .  A
O2401      C2419   1.280       .  A
O2401     Cd2410   2.107       .  S
O2402      C2416   1.282       .  A
O2403      C2414   1.279       .  A
O2403     Cd2406   2.078       .  S
Zn2404     O2415   2.104       .  S
Zn2404     O2417   2.056       .  S
Zn2404     O2409   1.937       .  S
O2405      C2416   1.279       .  A
O2405     Cd2410   2.107       .  S
Cd2406     O2409   1.984       .  S
Cd2407     O2411   2.100       .  S
Cd2407     O2420   2.130       .  S
O2408      C2418   1.288       .  A
Cd2410     O2876   2.098       .  S
O2411      C2418   1.282       .  A
O2412     Cd2874   2.098   1_556  S
C2413      O2417   1.282       .  A
O2415      C3327   1.285       .  A
C2418      C2422   1.512       .  S
C2419      O2420   1.283       .  A
N2421      C2422   1.364       .  A
C2422      C2423   1.385       .  A
C2423      C2424   1.391       .  A
C2423      H2426   1.082       .  S
C2424      H2427   1.082       .  S
C2425      C2466   1.504       .  S
N2428      C2432   1.356       .  A
N2428      C2429   1.363       .  A
N2428      C2621   1.420       .  S
C2429      C2430   1.384       .  A
C2429      C2463   1.509       .  S
C2430      C2431   1.390       .  A
C2430      H2433   1.082       .  S
C2431      C2432   1.385       .  A
C2431      H2434   1.082       .  S
N2435      C2439   1.356       .  A
N2435      C2436   1.364       .  A
N2435      C2587   1.419       .  S
C2436      C2437   1.384       .  A
C2437      C2438   1.391       .  A
C2437      H2440   1.082       .  S
C2438      C2439   1.386       .  A
C2438      H2441   1.082       .  S
C2442      N2443   1.352       .  A
C2442      N2447   1.352       .  A
C2442      C2609   1.467       .  S
N2443      C2444   1.352       .  A
C2444      N2445   1.350       .  A
C2444      C2643   1.467       .  S
N2445      C2446   1.352       .  A
C2446      N2447   1.352       .  A
C2446      C2599   1.467       .  S
O2448      C2464   1.291       .  A
O2448     Zn2454   2.127       .  S
C2449      O2465   1.284       .  A
C2449      O2462   1.278       .  A
O2450      C2463   1.289       .  A
O2450     Cd2457   2.143       .  S
O2451     Cd2460   2.107       .  S
O2452      C2466   1.284       .  A
O2452     Cd2456   2.134       .  S
O2453      C2464   1.281       .  A
O2453     Cd2456   2.087       .  S
Zn2454     O2465   2.103       .  S
Zn2454     O2467   2.055       .  S
Zn2454     O2459   1.936       .  S
O2455      C2466   1.279       .  A
O2455     Cd2460   2.106       .  S
Cd2456     O2458   2.159       .  S
Cd2456     O2459   1.985       .  S
Cd2457     O2461   2.095       .  S
Cd2457     O2470   2.124       .  S
Cd2457     O2459   1.989       .  S
O2458      C2468   1.291       .  A
O2459     Cd2460   1.940       .  S
Cd2460     O2462   2.098       .  S
O2461      C2468   1.280       .  A
C2463      O2467   1.281       .  A
C2464      C2472   1.510       .  S
C2469      C2489   1.502   1_554  S
N2471      C2475   1.354       .  A
N2471      C2472   1.363       .  A
N2471      C2565   1.418       .  S
C2472      C2473   1.384       .  A
C2473      C2474   1.393       .  A
C2473      H2476   1.082       .  S
C2474      C2475   1.386       .  A
C2474      H2477   1.082       .  S
C2475      C2516   1.503       .  S
N2478      C2482   1.357       .  A
N2478      C2479   1.365       .  A
N2478      C2555   1.421       .  S
C2479      C2480   1.385       .  A
C2480      C2481   1.389       .  A
C2481      C2482   1.385       .  A
C2481      H2484   1.082       .  S
N2485      C2489   1.357       .  A
N2485      C2486   1.365       .  A
N2485      C2521   1.422       .  S
C2486      C2487   1.385       .  A
C2487      C2488   1.389       .  A
C2487      H2490   1.082       .  S
C2488      C2489   1.384       .  A
C2488      H2491   1.082       .  S
C2492      N2493   1.350       .  A
C2492      N2497   1.352       .  A
C2492      C2533   1.466       .  S
N2493      C2494   1.352       .  A
C2494      N3423   1.353       .  A
C2494      C2543   1.467       .  S
N2495      C3422   1.353       .  A
N2495      C2496   1.354       .  A
C2496      N3425   1.352       .  A
C2496      C2577   1.469       .  S
N2497      C3424   1.352       .  A
O2498      C2514   1.292       .  A
C2499      O2515   1.284   1_655  A
C2499      O2512   1.279       .  A
O2500      C2513   1.289   1_655  A
O2500     Cd2507   2.146       .  S
O2501      C2519   1.279       .  A
O2501     Cd3438   2.107       .  S
O2502      C2516   1.284       .  A
O2502     Cd2506   2.135   1_545  S
O2503     Cd2506   2.085   1_545  S
Zn2504     O3443   2.099       .  S
Zn2504     O2517   2.056       .  S
Zn2504     O2509   1.937   1_455  S
O2505      C2516   1.279       .  A
O2505     Cd2510   2.104       .  S
Cd2506     O3436   2.153       .  S
Cd2506     O3437   1.987       .  S
Cd2507     O2511   2.094       .  S
Cd2507     O2520   2.124       .  S
Cd2507     O2509   1.985       .  S
O2508      C2518   1.290       .  A
O2508     Cd3434   2.153       .  S
O2509     Cd3434   1.987       .  S
O2509     Cd3438   1.941       .  S
Cd2510     O3429   2.107   1_545  S
Cd2510     O2512   2.100       .  S
Cd2510     O3437   1.941   1_545  S
O2511      C2518   1.282       .  A
C2513      O2517   1.281       .  A
O2515     Zn3432   2.099   1_545  S
C2519      O2520   1.283       .  A
C2521      C2522   1.389       .  A
C2521      C2526   1.395       .  A
C2522      C2523   1.380       .  A
C2522      H2535   1.073       .  S
C2523      C2524   1.409       .  A
C2523      H2536   1.078   1_556  S
C2524      C2530   1.411   1_556  A
C2524      C2525   1.422       .  A
C2525      C2527   1.398       .  A
C2525      C2526   1.399       .  A
C2526      H2537   1.084       .  S
C2527      C2528   1.390   1_556  A
C2527      H2538   1.084       .  S
C2528      C2529   1.401       .  A
C2528      H2539   1.084       .  S
C2529      C2530   1.418       .  A
C2531      C2532   1.383       .  A
C2531      H2540   1.078       .  S
C2532      C2533   1.401       .  A
C2532      H2541   1.082       .  S
C2533      C2534   1.401       .  A
C2534      H2542   1.084       .  S
C2543      C2544   1.401       .  A
C2543      C2548   1.402       .  A
C2544      C2545   1.383       .  A
C2544      H2557   1.083       .  S
C2545      C2546   1.409       .  A
C2545      H2558   1.079       .  S
C2546      C2552   1.410       .  A
C2546      C2547   1.417       .  A
C2547      C2549   1.401       .  A
C2547      C2548   1.397       .  A
C2548      H3487   1.083       .  S
C2549      C2550   1.391       .  A
C2549      H3488   1.083       .  S
C2550      C2551   1.398       .  A
C2550      H2561   1.084       .  S
C2551      C2552   1.421       .  A
C2551      C2556   1.400       .  A
C2552      C2553   1.408       .  A
C2553      C2554   1.379       .  A
C2553      H2562   1.079       .  S
C2554      C2555   1.388       .  A
C2554      H2563   1.072       .  S
C2555      C2556   1.395       .  A
C2556      H2564   1.084       .  S
H2559      C3476   1.083       .  S
H2560      C3477   1.083       .  S
C2565      C2566   1.392       .  A
C2565      C2570   1.387       .  A
C2566      C2567   1.393       .  A
C2566      H2579   1.083       .  S
C2567      C2568   1.418       .  A
C2567      H2580   1.077       .  S
C2568      C2574   1.419       .  A
C2568      C2569   1.421       .  A
C2569      C2571   1.395       .  A
C2569      C2570   1.387       .  A
C2570      H2581   1.080       .  S
C2571      C2572   1.381       .  A
C2571      H2582   1.082       .  S
C2572      C2573   1.396       .  A
C2572      H2583   1.084       .  S
C2573      C2574   1.422       .  A
C2573      C2578   1.391       .  A
C2574      C2575   1.411       .  A
C2575      C2576   1.389       .  A
C2575      H2584   1.077       .  S
C2576      C2577   1.401       .  A
C2576      H2585   1.083       .  S
C2577      C2578   1.398       .  A
C2578      H2586   1.085       .  S
C2587      C2588   1.386       .  A
C2587      C2592   1.395       .  A
C2588      C2589   1.379       .  A
C2588      H2601   1.073       .  S
C2589      C2590   1.409       .  A
C2589      H2602   1.077       .  S
C2590      C2596   1.412       .  A
C2590      C2591   1.423       .  A
C2591      C3521   1.398       .  A
C2591      C2592   1.400       .  A
C2592      H2603   1.084       .  S
C2593      C3519   1.398       .  A
C2593      C2594   1.390   1_565  A
C2593      H2604   1.084       .  S
C2594      C2595   1.400       .  A
C2594      H2605   1.084       .  S
C2595      C3524   1.418   1_545  A
C2595      C2600   1.396       .  A
C2596      C3523   1.418       .  A
C2596      C2597   1.410       .  A
C2597      C3526   1.381       .  A
C2597      H2606   1.077       .  S
C2598      C3525   1.381   1_545  A
C2598      C2599   1.400       .  A
C2598      H3535   1.083   1_545  S
C2599      C2600   1.402       .  A
C2600      H2608   1.084       .  S
H2607      C3526   1.083       .  S
C2609      C2610   1.398       .  A
C2609      C2614   1.400       .  A
C2610      C2611   1.388       .  A
C2610      H2623   1.082       .  S
C2611      C2612   1.411       .  A
C2611      H2624   1.077       .  S
C2612      C2618   1.418       .  A
C2612      C2613   1.421       .  A
C2613      C2615   1.397       .  A
C2613      C2614   1.393       .  A
C2614      H2625   1.084       .  S
C2615      C2616   1.383       .  A
C2615      H2626   1.084       .  S
C2616      C2617   1.396       .  A
C2616      H2627   1.084       .  S
C2617      C2618   1.422       .  A
C2617      C2622   1.389       .  A
C2618      C2619   1.417       .  A
C2619      C2620   1.391       .  A
C2619      H2628   1.077       .  S
C2620      C2621   1.393       .  A
C2620      H2629   1.083       .  S
C2621      C2622   1.388       .  A
C2622      H2630   1.079       .  S
C2631      C2632   1.392       .  A
C2631      C2636   1.386   1_554  A
C2632      C2633   1.392   1_554  A
C2633      C2634   1.417       .  A
C2633      H2646   1.077       .  S
C2634      C2640   1.417       .  A
C2634      C2635   1.421       .  A
C2635      C2637   1.395       .  A
C2635      C2636   1.386       .  A
C2636      H2647   1.079       .  S
C2637      C2638   1.380       .  A
C2637      H2648   1.083       .  S
C2638      C2639   1.396       .  A
C2638      H2649   1.084       .  S
C2639      C2640   1.421       .  A
C2639      C2644   1.390       .  A
C2640      C2641   1.411       .  A
C2641      C2642   1.389       .  A
C2641      H2650   1.077       .  S
C2642      C2643   1.399       .  A
C2642      H2651   1.082       .  S
C2643      C2644   1.399       .  A
C2644      H2652   1.084       .  S
C2653      C2654   1.388       .  A
C2653      C2658   1.398       .  A
C2654      C2655   1.376       .  A
C2654      H2667   1.074       .  S
C2655      C2656   1.406       .  A
C2655      H2668   1.080       .  S
C2656      C2662   1.404       .  A
C2656      C2657   1.419       .  A
C2657      C2659   1.400       .  A
C2657      C2658   1.401       .  A
C2658      H2669   1.084       .  S
C2659      C2660   1.394       .  A
C2659      H2670   1.084       .  S
C2660      C2661   1.403       .  A
C2660      H2671   1.084       .  S
C2661      C2662   1.415       .  A
C2661      C2666   1.398       .  A
C2662      C2663   1.407       .  A
C2663      C2664   1.378       .  A
C2663      H2672   1.079       .  S
C2664      C2665   1.401       .  A
C2664      H2673   1.083       .  S
C2665      C2666   1.404       .  A
C2666      H2674   1.083       .  S
C2675      C2680   1.399       .  A
C2676      C2677   1.389   1_554  A
C2676      H2689   1.082       .  S
C2677      C2678   1.411       .  A
C2677      H2690   1.077   1_556  S
C2678      C2684   1.419       .  A
C2678      C2679   1.422       .  A
C2680      H2691   1.084       .  S
C2681      H2692   1.084   1_455  S
C2682      C2683   1.396       .  A
C2682      H2693   1.083       .  S
C2683      C2684   1.421       .  A
C2683      C2688   1.389       .  A
C2684      C2685   1.417       .  A
C2685      C2686   1.393       .  A
C2685      H2694   1.077       .  S
C2686      C2687   1.393       .  A
C2686      H2695   1.083       .  S
C2687      C2688   1.386       .  A
C2688      H2696   1.078       .  S
C2697      C2698   1.400       .  A
C2697      C2702   1.399       .  A
C2698      C2699   1.391       .  A
C2698      H2711   1.083       .  S
C2699      C2700   1.412       .  A
C2699      H2712   1.077       .  S
C2701      C2703   1.397       .  A
C2703      C2704   1.381       .  A
C2703      H2714   1.084       .  S
C2704      C2705   1.396       .  A
C2704      H2715   1.083       .  S
C2705      C2706   1.422       .  A
C2705      C2710   1.388       .  A
C2707      H2716   1.077       .  S
C2708      C2709   1.393       .  A
C2709      N3299   1.421       .  S
C2709      C2710   1.386       .  A
C2710      H2718   1.077       .  S
C2719      C2720   1.399       .  A
C2719      C2724   1.400       .  A
C2720      C2721   1.389       .  A
C2720      H2733   1.083       .  S
C2721      C2722   1.411       .  A
C2722      C2723   1.421       .  A
C2723      C2725   1.397       .  A
C2723      C2724   1.391       .  A
C2724      H2735   1.084       .  S
C2725      C2726   1.382       .  A
C2725      H2736   1.084       .  S
C2726      H2737   1.082       .  S
C2727      C2728   1.421       .  A
C2727      C2732   1.389       .  A
C2728      C2729   1.417       .  A
C2729      C2730   1.392       .  A
C2729      H2738   1.077       .  S
C2730      C2731   1.392       .  A
C2730      H2739   1.083       .  S
C2731      C2732   1.388       .  A
C2732      H2740   1.079       .  S
C2741      C2742   1.398       .  A
C2741      C2746   1.400       .  A
C2742      C2743   1.387       .  A
C2742      H2755   1.083       .  S
C2743      C2744   1.411       .  A
C2743      H2756   1.077       .  S
C2744      C2750   1.417       .  A
C2744      C2745   1.421       .  A
C2745      C2747   1.398       .  A
C2745      C2746   1.393       .  A
C2746      H2757   1.084       .  S
C2747      C2748   1.383       .  A
C2747      H2758   1.084       .  S
C2748      C2749   1.396       .  A
C2748      H2759   1.083       .  S
C2749      C2750   1.421       .  A
C2749      C2754   1.389       .  A
C2750      C2751   1.417       .  A
C2751      C2752   1.392       .  A
C2751      H2760   1.077       .  S
C2752      C2753   1.391       .  A
C2752      H2761   1.083       .  S
C2753      C2754   1.387       .  A
C2754      H2762   1.077       .  S
C2763      C2764   1.401       .  A
C2763      C2768   1.402       .  A
C2764      C2765   1.383       .  A
C2764      H2777   1.083       .  S
C2765      C2766   1.408       .  A
C2765      H2778   1.079       .  S
C2766      C2772   1.407       .  A
C2766      C2767   1.415       .  A
C2767      C2769   1.402       .  A
C2767      C2768   1.396       .  A
C2768      H2779   1.083       .  S
C2769      C2770   1.392       .  A
C2769      H2780   1.083       .  S
C2770      C2771   1.399       .  A
C2770      H2781   1.084       .  S
C2771      C2772   1.420       .  A
C2771      C2776   1.400       .  A
C2772      C2773   1.407       .  A
C2773      C2774   1.379       .  A
C2773      H2782   1.080       .  S
C2774      C2775   1.391       .  A
C2774      H2783   1.076       .  S
C2775      C2776   1.397       .  A
C2776      H2784   1.084       .  S
N2785      C2789   1.357       .  A
N2785      C2786   1.368       .  A
N2785      C3239   1.424       .  S
C2786      C2787   1.385       .  A
C2786      C2932   1.514       .  S
C2787      C2788   1.389   1_554  A
C2787      H2790   1.082       .  S
C2788      C2789   1.384   1_556  A
C2788      H3255   1.082       .  S
C2789      C2880   1.503       .  S
H2791      C3252   1.082       .  S
N2792      C2793   1.363       .  A
N2792      C3217   1.418       .  S
C2793      C2794   1.384       .  A
C2793      C2877   1.509       .  S
C2795      C2796   1.385       .  A
C2796      C2963   1.504       .  S
N2799      C2803   1.355       .  A
N2799      C2800   1.362       .  A
N2799      C3195   1.418       .  S
C2800      C2801   1.384       .  A
C2800      C2982   1.510       .  S
C2801      C2802   1.392       .  A
C2801      H2804   1.082       .  S
C2802      C2803   1.386       .  A
C2802      H2805   1.082       .  S
C2803      C2913   1.504       .  S
C2806      N2807   1.353       .  A
C2806      N2811   1.352       .  A
C2806      C3183   1.467       .  S
N2807      C2808   1.351       .  A
C2808      N2809   1.352       .  A
C2808      C3227   1.466       .  S
N2809      C2810   1.351       .  A
C2810      N2811   1.352       .  A
C2810      C3205   1.466       .  S
O2812      C2828   1.292       .  A
O2812     Zn2818   2.131       .  S
C2813      C2846   1.502       .  S
C2813      O2829   1.284       .  A
C2813      O2826   1.278       .  A
O2814      C2827   1.289       .  A
O2814     Cd2821   2.146       .  S
O2815      C2833   1.280       .  A
O2815     Cd2824   2.106       .  S
O2816      C2830   1.283       .  A
O2816     Cd2820   2.128       .  S
O2817      C2828   1.279       .  A
O2817     Cd2820   2.081       .  S
Zn2818     O2829   2.099       .  S
Zn2818     O2831   2.057       .  S
Zn2818     O2823   1.935       .  S
O2819      C2830   1.279       .  A
O2819     Cd2824   2.106       .  S
Cd2820     O2822   2.148       .  S
Cd2820     O2823   1.984       .  S
Cd2821     O2825   2.098       .  S
Cd2821     O2834   2.127       .  S
Cd2821     O2823   1.988       .  S
O2822      C2832   1.290       .  A
O2823     Cd2824   1.940       .  S
Cd2824     O2826   2.095       .  S
O2825      C2832   1.281       .  A
C2827      C2950   1.511       .  S
C2827      O2831   1.282       .  A
C2828      C2900   1.510       .  S
C2830      C2946   1.503       .  S
C2832      C2850   1.511       .  S
C2833      C2896   1.502       .  S
C2833      O2834   1.283       .  A
N2835      C2839   1.356       .  A
N2835      C2836   1.364       .  A
C2836      C2837   1.384       .  A
C2836      C2978   1.509       .  S
C2837      C2838   1.390       .  A
C2837      H2840   1.082       .  S
C2838      C2839   1.385       .  A
C2838      H2841   1.082       .  S
C2839      C2883   1.503       .  S
N2842      C2846   1.355       .  A
N2842      C2843   1.364       .  A
N2842      C3151   1.421       .  S
C2843      C2844   1.384       .  A
C2843      C2878   1.507       .  S
C2844      C2845   1.390       .  A
C2844      H2847   1.082       .  S
C2845      C2846   1.385       .  A
C2845      H2848   1.082       .  S
N2849      C2853   1.357       .  A
N2849      C2850   1.365       .  A
N2849      C3117   1.420       .  S
C2850      C2851   1.385       .  A
C2851      C2852   1.389       .  A
C2851      H2854   1.082       .  S
C2852      C2853   1.384       .  A
C2852      H2855   1.082       .  S
C2853      C2983   1.503       .  S
C2856      N2857   1.352       .  A
C2856      N3325   1.350       .  A
C2856      C3161   1.468       .  S
N2857      C3322   1.352       .  A
C2858      N3321   1.352       .  A
C2858      N2859   1.352       .  A
C2858      C3139   1.468       .  S
N2859      C2860   1.352       .  A
C2860      N2861   1.353       .  A
C2860      C3129   1.466       .  S
N2861      C3320   1.350       .  A
O2862      C2878   1.292       .  A
O2862     Zn2868   2.126       .  S
C2863      C2903   1.504   1_545  S
C2863      O2876   1.278       .  A
O2864      C2877   1.290       .  A
O2864     Cd3335   2.148       .  S
O2865      C2883   1.280       .  A
O2865     Cd2874   2.107       .  S
O2866      C2880   1.282       .  A
O2866     Cd3334   2.121   1_554  S
O2867      C2878   1.279       .  A
O2867     Cd2870   2.078       .  S
Zn2868     O2879   2.104       .  S
Zn2868     O2881   2.056       .  S
Zn2868     O2873   1.937       .  S
O2869      C2880   1.279       .  A
O2869     Cd2874   2.107       .  S
Cd2870     O3330   2.121       .  S
Cd2870     O3336   2.146       .  S
Cd2870     O2873   1.984       .  S
Cd2871     O3328   2.148       .  S
Cd2871     O2875   2.101   1_556  S
Cd2871     O2884   2.129   1_556  S
Cd2871     O3337   1.983       .  S
O2872      C2882   1.288       .  A
O2872     Cd3334   2.146   1_554  S
O2873     Cd3335   1.983       .  S
O2873     Cd3338   1.942       .  S
Cd2874     O3337   1.942   1_554  S
O2875      C2882   1.282       .  A
C2877      O2881   1.282       .  A
C2882      C2886   1.512       .  S
C2883      O2884   1.283       .  A
N2885      C2886   1.364       .  A
C2886      C2887   1.385       .  A
C2887      C2888   1.391       .  A
C2887      H2890   1.082       .  S
C2888      H2891   1.082       .  S
C2889      C2930   1.505       .  S
N2892      C2896   1.356       .  A
N2892      C2893   1.363       .  A
N2892      C3085   1.420       .  S
C2893      C2894   1.384       .  A
C2893      C2927   1.509       .  S
C2894      C2895   1.390       .  A
C2894      H2897   1.082       .  S
C2895      C2896   1.385       .  A
C2895      H2898   1.082       .  S
N2899      C2903   1.356       .  A
N2899      C2900   1.365       .  A
N2899      C3051   1.419       .  S
C2900      C2901   1.384       .  A
C2901      C2902   1.391       .  A
C2901      H2904   1.082       .  S
C2902      C2903   1.386       .  A
C2902      H2905   1.082       .  S
C2906      N2907   1.352       .  A
C2906      N2911   1.352       .  A
C2906      C3073   1.467       .  S
N2907      C2908   1.352       .  A
C2908      N2909   1.350       .  A
C2908      C3107   1.467       .  S
N2909      C2910   1.352       .  A
C2910      N2911   1.352       .  A
C2910      C3063   1.466       .  S
O2912      C2928   1.291       .  A
O2912     Zn2918   2.127       .  S
C2913      O2929   1.284       .  A
C2913      O2926   1.278       .  A
O2914      C2927   1.289       .  A
O2914     Cd2921   2.143       .  S
O2915      C3397   1.279       .  A
O2915     Cd2924   2.107       .  S
O2916      C2930   1.284       .  A
O2916     Cd2920   2.135       .  S
O2917      C2928   1.281       .  A
O2917     Cd2920   2.087       .  S
Zn2918     O2929   2.104       .  S
Zn2918     O2931   2.055       .  S
Zn2918     O2923   1.935       .  S
O2919      C2930   1.279       .  A
O2919     Cd2924   2.106       .  S
Cd2920     O2922   2.159       .  S
Cd2920     O2923   1.985       .  S
Cd2921     O2925   2.095       .  S
Cd2921     O2934   2.124       .  S
Cd2921     O2923   1.989       .  S
O2922      C2932   1.291       .  A
O2923     Cd2924   1.940       .  S
Cd2924     O2926   2.098       .  S
O2925      C2932   1.280       .  A
C2927      O2931   1.281       .  A
C2928      C2936   1.510       .  S
C2933      C2953   1.502       .  S
C2933      O3379   1.279       .  A
C2933      O3398   1.282       .  A
O2934      C3397   1.282       .  A
N2935      C2939   1.354       .  A
N2935      C2936   1.363       .  A
N2935      C3029   1.418       .  S
C2936      C2937   1.384       .  A
C2937      C2938   1.393       .  A
C2937      H2940   1.082       .  S
C2938      C2939   1.386       .  A
C2938      H2941   1.082       .  S
C2939      C2980   1.503       .  S
N2942      C2946   1.357       .  A
N2942      C2943   1.365       .  A
N2942      C3019   1.421       .  S
C2943      C2944   1.385       .  A
C2944      C2945   1.389       .  A
C2945      C2946   1.385       .  A
C2945      H2948   1.082       .  S
N2949      C2953   1.357       .  A
N2949      C2950   1.365       .  A
N2949      C2985   1.422       .  S
C2950      C2951   1.385       .  A
C2951      C2952   1.389       .  A
C2951      H2954   1.082       .  S
C2952      C2953   1.384       .  A
C2952      H2955   1.082       .  S
C2956      N2957   1.350       .  A
C2956      N2961   1.351   1_565  A
C2956      C2997   1.466       .  S
N2957      C2958   1.352   1_565  A
C2958      C3007   1.467   1_545  S
N2959      C2960   1.354       .  A
C2960      C3041   1.469       .  S
O2962      C2978   1.292       .  A
C2963      O2979   1.284   1_655  A
C2963      O2976   1.279       .  A
O2964      C2977   1.289   1_655  A
O2964     Cd2971   2.147       .  S
O2965      C2983   1.279       .  A
O2966      C2980   1.284       .  A
O2966     Cd2970   2.134       .  S
O2967     Cd2970   2.084       .  S
Zn2968     O2981   2.056       .  S
Zn2968     O2973   1.937   1_455  S
O2969      C2980   1.279       .  A
O2969     Cd2974   2.104       .  S
Cd2971     O2975   2.094       .  S
Cd2971     O2984   2.125       .  S
Cd2971     O2973   1.984       .  S
O2972      C2982   1.289       .  A
Cd2974     O2976   2.100       .  S
O2975      C2982   1.282       .  A
C2977      O2981   1.281       .  A
C2983      O2984   1.283       .  A
C2985      C2986   1.389       .  A
C2985      C2990   1.395       .  A
C2986      C2987   1.380       .  A
C2986      H2999   1.073       .  S
C2987      C2988   1.408       .  A
C2987      H3000   1.078       .  S
C2988      C2994   1.411       .  A
C2988      C2989   1.421       .  A
C2989      C2991   1.398       .  A
C2989      C2990   1.399       .  A
C2990      H3001   1.084       .  S
C2991      C2992   1.390       .  A
C2991      H3002   1.084       .  S
C2992      C2993   1.401       .  A
C2992      H3003   1.083       .  S
C2993      C2994   1.417       .  A
C2993      C3462   1.397       .  A
C2994      C3459   1.410       .  A
C2995      C3458   1.410       .  A
C2995      C2996   1.383       .  A
C2995      H3004   1.078   1_554  S
C2996      C2997   1.401       .  A
C2996      H3005   1.082       .  S
C2997      C2998   1.401       .  A
C2998      C3457   1.397       .  A
C2998      H3006   1.084       .  S
C3007      C3008   1.401       .  A
C3007      C3012   1.402   1_565  A
C3008      C3009   1.383       .  A
C3008      H3021   1.083       .  S
C3009      C3010   1.409       .  A
C3009      H3022   1.079       .  S
C3010      C3016   1.409       .  A
C3010      C3011   1.416       .  A
C3011      C3013   1.401   1_565  A
C3011      C3012   1.397   1_565  A
C3013      C3014   1.391   1_545  A
C3014      C3015   1.398       .  A
C3014      H3025   1.084   1_565  S
C3015      C3016   1.421       .  A
C3015      C3020   1.400       .  A
C3016      C3017   1.408       .  A
C3017      C3018   1.379       .  A
C3017      H3026   1.079       .  S
C3018      C3019   1.388       .  A
C3018      H3027   1.072       .  S
C3019      C3020   1.396       .  A
C3020      H3028   1.084       .  S
C3029      C3030   1.392       .  A
C3029      C3034   1.386       .  A
C3030      C3031   1.393       .  A
C3030      H3043   1.083       .  S
C3031      C3032   1.418       .  A
C3031      H3044   1.077       .  S
C3032      C3038   1.419       .  A
C3032      C3033   1.421       .  A
C3033      C3035   1.395       .  A
C3033      C3034   1.387       .  A
C3034      H3045   1.080       .  S
C3035      C3036   1.381       .  A
C3035      H3046   1.082       .  S
C3036      C3037   1.396       .  A
C3036      H3047   1.084       .  S
C3037      C3038   1.422       .  A
C3037      C3042   1.391       .  A
C3038      C3039   1.411       .  A
C3039      C3040   1.389       .  A
C3039      H3048   1.077       .  S
C3040      C3041   1.401       .  A
C3040      H3049   1.083       .  S
C3041      C3042   1.398       .  A
C3042      H3050   1.085       .  S
C3051      C3052   1.386       .  A
C3051      C3056   1.395       .  A
C3052      C3053   1.379       .  A
C3052      H3065   1.073       .  S
C3053      C3054   1.409       .  A
C3053      H3066   1.077       .  S
C3054      C3060   1.412       .  A
C3054      C3055   1.423       .  A
C3055      C3056   1.400       .  A
C3056      H3067   1.084       .  S
C3057      C3058   1.390       .  A
C3057      H3068   1.084       .  S
C3058      C3059   1.400       .  A
C3058      H3069   1.084       .  S
C3059      C3064   1.396       .  A
C3060      C3061   1.410       .  A
C3061      H3070   1.077       .  S
C3062      C3063   1.400       .  A
C3063      C3064   1.402       .  A
C3064      H3072   1.084       .  S
C3073      C3074   1.398       .  A
C3073      C3078   1.400       .  A
C3074      C3075   1.388       .  A
C3074      H3087   1.082       .  S
C3075      C3076   1.411       .  A
C3075      H3088   1.077       .  S
C3076      C3082   1.418       .  A
C3076      C3077   1.421       .  A
C3077      C3079   1.397       .  A
C3077      C3078   1.393       .  A
C3078      H3089   1.084       .  S
C3079      C3080   1.383       .  A
C3079      H3090   1.084       .  S
C3080      C3081   1.396       .  A
C3080      H3091   1.084       .  S
C3081      C3082   1.422       .  A
C3081      C3086   1.389       .  A
C3082      C3083   1.417       .  A
C3083      C3084   1.391       .  A
C3083      H3092   1.077       .  S
C3084      C3085   1.393       .  A
C3084      H3093   1.083       .  S
C3085      C3086   1.388       .  A
C3086      H3094   1.079       .  S
C3095      C3096   1.392       .  A
C3095      C3100   1.386       .  A
C3096      C3097   1.392       .  A
C3097      C3098   1.417       .  A
C3097      H3110   1.077       .  S
C3098      C3104   1.418       .  A
C3098      C3099   1.421       .  A
C3099      C3101   1.395       .  A
C3099      C3100   1.386       .  A
C3100      H3111   1.079       .  S
C3101      C3102   1.380       .  A
C3101      H3112   1.083       .  S
C3102      C3103   1.396       .  A
C3102      H3113   1.084       .  S
C3103      C3104   1.421       .  A
C3103      C3108   1.390       .  A
C3104      C3105   1.411       .  A
C3105      C3106   1.389       .  A
C3105      H3114   1.077       .  S
C3106      C3107   1.399       .  A
C3106      H3115   1.082       .  S
C3107      C3108   1.399       .  A
C3108      H3116   1.084       .  S
C3117      C3118   1.388       .  A
C3117      C3122   1.398       .  A
C3118      C3119   1.376       .  A
C3118      H3131   1.074       .  S
C3119      C3120   1.406       .  A
C3119      H3132   1.080       .  S
C3120      C3126   1.405       .  A
C3120      C3121   1.419       .  A
C3121      C3123   1.400       .  A
C3121      C3122   1.401       .  A
C3122      H3133   1.084       .  S
C3123      C3124   1.394       .  A
C3123      H3134   1.084       .  S
C3124      C3125   1.402       .  A
C3124      H3135   1.084       .  S
C3125      C3126   1.415       .  A
C3125      C3130   1.397       .  A
C3126      C3127   1.407       .  A
C3127      C3128   1.378       .  A
C3127      H3136   1.079       .  S
C3128      C3129   1.401       .  A
C3128      H3137   1.083       .  S
C3129      C3130   1.404       .  A
C3130      H3138   1.083       .  S
C3139      C3144   1.400       .  A
C3140      C3141   1.389       .  A
C3140      H3153   1.082       .  S
C3141      C3142   1.411       .  A
C3141      H3154   1.077       .  S
C3142      C3148   1.419       .  A
C3142      C3143   1.422       .  A
C3144      H3155   1.084       .  S
C3145      H3156   1.084   1_455  S
C3146      C3147   1.396       .  A
C3146      H3157   1.083       .  S
C3147      C3148   1.421       .  A
C3147      C3152   1.389       .  A
C3148      C3149   1.417       .  A
C3149      C3150   1.393       .  A
C3149      H3158   1.077       .  S
C3150      C3151   1.393       .  A
C3150      H3159   1.083       .  S
C3151      C3152   1.387       .  A
C3152      H3160   1.078       .  S
C3161      C3162   1.400       .  A
C3161      C3166   1.399       .  A
C3162      C3163   1.391       .  A
C3162      H3175   1.083       .  S
C3163      C3164   1.412       .  A
C3163      H3176   1.077       .  S
C3165      C3167   1.397       .  A
C3167      C3168   1.381       .  A
C3167      H3178   1.084       .  S
C3168      C3169   1.396       .  A
C3168      H3179   1.083       .  S
C3169      C3170   1.422       .  A
C3169      C3174   1.389       .  A
C3171      H3180   1.077       .  S
C3172      C3173   1.394       .  A
C3173      C3174   1.386   1_545  A
C3174      H3182   1.078       .  S
C3183      C3184   1.399       .  A
C3183      C3188   1.400       .  A
C3184      C3185   1.389       .  A
C3184      H3197   1.083       .  S
C3185      C3186   1.411       .  A
C3186      C3187   1.421       .  A
C3187      C3189   1.397       .  A
C3187      C3188   1.391       .  A
C3188      H3199   1.084       .  S
C3189      C3190   1.382       .  A
C3189      H3200   1.084       .  S
C3190      H3201   1.082       .  S
C3191      C3192   1.421       .  A
C3191      C3196   1.389       .  A
C3192      C3193   1.417       .  A
C3193      C3194   1.392       .  A
C3193      H3202   1.077       .  S
C3194      C3195   1.392       .  A
C3194      H3203   1.083       .  S
C3195      C3196   1.388       .  A
C3196      H3204   1.080       .  S
C3205      C3206   1.398       .  A
C3205      C3210   1.400       .  A
C3206      C3207   1.388       .  A
C3206      H3219   1.083       .  S
C3207      C3208   1.411       .  A
C3207      H3220   1.077       .  S
C3208      C3214   1.417       .  A
C3208      C3209   1.421       .  A
C3209      C3211   1.398       .  A
C3209      C3210   1.393       .  A
C3210      H3221   1.084       .  S
C3211      C3212   1.383       .  A
C3211      H3222   1.084       .  S
C3212      C3213   1.396       .  A
C3212      H3223   1.083       .  S
C3213      C3214   1.421       .  A
C3213      C3218   1.389       .  A
C3214      C3215   1.417       .  A
C3215      C3216   1.392       .  A
C3215      H3224   1.077       .  S
C3216      C3217   1.392       .  A
C3216      H3225   1.083       .  S
C3217      C3218   1.387       .  A
C3218      H3226   1.077       .  S
C3227      C3228   1.401       .  A
C3227      C3232   1.402       .  A
C3228      C3229   1.382       .  A
C3228      H3241   1.083       .  S
C3229      C3230   1.408       .  A
C3229      H3242   1.079       .  S
C3230      C3236   1.407       .  A
C3230      C3231   1.415       .  A
C3231      C3233   1.402       .  A
C3231      C3232   1.396       .  A
C3232      H3243   1.083       .  S
C3233      C3234   1.393       .  A
C3233      H3244   1.083       .  S
C3234      C3235   1.399       .  A
C3234      H3245   1.084       .  S
C3235      C3236   1.419       .  A
C3235      C3240   1.400       .  A
C3236      C3237   1.407       .  A
C3237      C3238   1.379       .  A
C3237      H3246   1.080       .  S
C3238      C3239   1.391       .  A
C3238      H3247   1.076       .  S
C3239      C3240   1.398       .  A
C3240      H3248   1.084       .  S
N3249      C3253   1.357       .  A
N3249      C3250   1.368       .  A
N3249      C3703   1.424       .  S
C3250      C3251   1.385       .  A
C3250      C3396   1.514       .  S
C3251      C3252   1.389       .  A
C3251      H3254   1.082       .  S
C3252      C3253   1.384       .  A
C3253      C3344   1.503       .  S
N3256      C3257   1.363       .  A
N3256      C3681   1.418       .  S
C3257      C3258   1.384       .  A
C3257      C3341   1.509       .  S
C3259      C3260   1.385       .  A
C3260      C3427   1.504       .  S
N3263      C3267   1.355       .  A
N3263      C3264   1.363       .  A
N3263      C3659   1.418       .  S
C3264      C3265   1.384       .  A
C3264      C3446   1.510       .  S
C3265      C3266   1.392       .  A
C3265      H3268   1.082       .  S
C3266      C3267   1.386       .  A
C3266      H3269   1.082       .  S
C3267      C3377   1.504       .  S
C3270      N3271   1.353       .  A
C3270      N3275   1.352       .  A
C3270      C3647   1.467       .  S
N3271      C3272   1.351       .  A
C3272      N3273   1.352       .  A
C3272      C3691   1.466       .  S
N3273      C3274   1.351       .  A
C3274      N3275   1.352       .  A
C3274      C3669   1.466       .  S
O3276      C3292   1.292       .  A
O3276     Zn3282   2.130       .  S
C3277      C3310   1.502       .  S
C3277      O3293   1.284       .  A
C3277      O3290   1.278       .  A
O3278      C3291   1.289       .  A
O3278     Cd3285   2.145       .  S
O3279      C3297   1.280       .  A
O3279     Cd3288   2.106       .  S
O3280      C3294   1.283       .  A
O3280     Cd3284   2.128       .  S
O3281      C3292   1.279       .  A
O3281     Cd3284   2.081       .  S
Zn3282     O3293   2.099       .  S
Zn3282     O3295   2.057       .  S
Zn3282     O3287   1.935       .  S
O3283      C3294   1.279       .  A
O3283     Cd3288   2.106       .  S
Cd3284     O3286   2.148       .  S
Cd3284     O3287   1.984       .  S
Cd3285     O3289   2.097       .  S
Cd3285     O3298   2.127       .  S
Cd3285     O3287   1.988       .  S
O3286      C3296   1.290       .  A
O3287     Cd3288   1.939       .  S
Cd3288     O3290   2.095       .  S
O3289      C3296   1.281       .  A
C3291      C3414   1.511       .  S
C3291      O3295   1.282       .  A
C3292      C3364   1.510       .  S
C3294      C3410   1.503       .  S
C3296      C3314   1.511       .  S
C3297      C3360   1.502       .  S
C3297      O3298   1.283       .  A
N3299      C3303   1.356       .  A
N3299      C3300   1.364       .  A
C3300      C3301   1.384       .  A
C3300      C3442   1.509       .  S
C3301      C3302   1.391       .  A
C3301      H3304   1.082       .  S
C3302      C3303   1.385       .  A
C3302      H3305   1.082       .  S
C3303      C3347   1.503       .  S
N3306      C3310   1.355       .  A
N3306      C3307   1.364       .  A
N3306      C3615   1.421       .  S
C3307      C3308   1.384       .  A
C3307      C3342   1.507       .  S
C3308      C3309   1.390       .  A
C3308      H3311   1.082       .  S
C3309      C3310   1.385       .  A
C3309      H3312   1.082       .  S
N3313      C3317   1.357       .  A
N3313      C3314   1.366       .  A
N3313      C3581   1.421       .  S
C3314      C3315   1.385       .  A
C3315      C3316   1.389       .  A
C3315      H3318   1.082       .  S
C3316      C3317   1.384       .  A
C3316      H3319   1.082       .  S
C3317      C3447   1.503       .  S
C3320      N3321   1.352       .  A
C3320      C3625   1.468       .  S
C3322      N3323   1.353   1_554  A
C3322      C3603   1.468   1_554  S
N3323      C3324   1.352       .  A
C3324      N3325   1.353   1_556  A
C3324      C3593   1.466       .  S
O3326      C3342   1.292       .  A
O3326     Zn3332   2.126       .  S
C3327      C3367   1.505   1_545  S
C3327      O3340   1.278       .  A
O3328      C3341   1.290       .  A
O3329      C3347   1.280       .  A
O3329     Cd3338   2.107       .  S
O3330      C3344   1.282       .  A
O3331      C3342   1.279       .  A
O3331     Cd3334   2.078       .  S
Zn3332     O3343   2.104       .  S
Zn3332     O3345   2.056       .  S
Zn3332     O3337   1.937       .  S
O3333      C3344   1.279       .  A
O3333     Cd3338   2.107       .  S
Cd3334     O3337   1.984       .  S
Cd3335     O3339   2.100       .  S
Cd3335     O3348   2.130       .  S
O3336      C3346   1.288       .  A
O3339      C3346   1.282       .  A
C3341      O3345   1.282       .  A
C3346      C3350   1.512       .  S
C3347      O3348   1.284       .  A
N3349      C3350   1.364       .  A
C3350      C3351   1.385       .  A
C3351      C3352   1.391       .  A
C3351      H3354   1.082       .  S
C3352      H3355   1.082       .  S
C3353      C3394   1.505       .  S
N3356      C3360   1.356       .  A
N3356      C3357   1.363       .  A
N3356      C3549   1.420       .  S
C3357      C3358   1.384       .  A
C3357      C3391   1.509       .  S
C3358      C3359   1.390       .  A
C3358      H3361   1.082       .  S
C3359      C3360   1.385       .  A
C3359      H3362   1.082       .  S
N3363      C3367   1.356       .  A
N3363      C3364   1.364       .  A
N3363      C3515   1.419       .  S
C3364      C3365   1.384       .  A
C3365      C3366   1.391       .  A
C3365      H3368   1.082       .  S
C3366      C3367   1.386       .  A
C3366      H3369   1.082       .  S
C3370      N3371   1.352       .  A
C3370      N3375   1.352       .  A
C3370      C3537   1.467       .  S
N3371      C3372   1.352       .  A
C3372      N3373   1.350       .  A
C3372      C3571   1.467       .  S
N3373      C3374   1.352       .  A
C3374      N3375   1.352       .  A
C3374      C3527   1.467       .  S
O3376      C3392   1.291       .  A
O3376     Zn3382   2.127       .  S
C3377      O3393   1.284       .  A
C3377      O3390   1.278       .  A
O3378      C3391   1.289       .  A
O3378     Cd3385   2.143       .  S
O3379     Cd3388   2.107       .  S
O3380      C3394   1.284       .  A
O3380     Cd3384   2.135       .  S
O3381      C3392   1.281       .  A
O3381     Cd3384   2.088       .  S
Zn3382     O3393   2.103       .  S
Zn3382     O3395   2.055       .  S
Zn3382     O3387   1.936       .  S
O3383      C3394   1.279       .  A
O3383     Cd3388   2.106       .  S
Cd3384     O3386   2.159       .  S
Cd3384     O3387   1.985       .  S
Cd3385     O3389   2.095       .  S
Cd3385     O3398   2.124       .  S
Cd3385     O3387   1.990       .  S
O3386      C3396   1.291       .  A
O3387     Cd3388   1.940       .  S
Cd3388     O3390   2.099       .  S
O3389      C3396   1.280       .  A
C3391      O3395   1.281       .  A
C3392      C3400   1.510       .  S
C3397      C3417   1.502   1_554  S
N3399      C3403   1.354       .  A
N3399      C3400   1.363       .  A
N3399      C3493   1.418       .  S
C3400      C3401   1.384       .  A
C3401      C3402   1.393       .  A
C3401      H3404   1.082       .  S
C3402      C3403   1.386       .  A
C3402      H3405   1.082       .  S
C3403      C3444   1.503       .  S
N3406      C3410   1.357       .  A
N3406      C3407   1.365       .  A
N3406      C3483   1.421       .  S
C3407      C3408   1.385       .  A
C3408      C3409   1.389       .  A
C3409      C3410   1.385       .  A
C3409      H3412   1.082       .  S
N3413      C3417   1.357       .  A
N3413      C3414   1.365       .  A
N3413      C3449   1.422       .  S
C3414      C3415   1.385       .  A
C3415      C3416   1.389       .  A
C3415      H3418   1.082       .  S
C3416      C3417   1.384       .  A
C3416      H3419   1.082       .  S
C3420      N3421   1.350       .  A
C3420      N3425   1.352   1_565  A
C3420      C3461   1.466       .  S
N3421      C3422   1.352   1_565  A
C3422      C3471   1.467   1_545  S
N3423      C3424   1.354       .  A
C3424      C3505   1.469       .  S
O3426      C3442   1.292       .  A
C3427      O3443   1.284   1_655  A
C3427      O3440   1.279       .  A
O3428      C3441   1.289   1_655  A
O3428     Cd3435   2.146       .  S
O3429      C3447   1.279       .  A
O3430      C3444   1.284       .  A
O3430     Cd3434   2.134       .  S
O3431     Cd3434   2.085       .  S
Zn3432     O3445   2.056       .  S
Zn3432     O3437   1.937   1_455  S
O3433      C3444   1.279       .  A
O3433     Cd3438   2.104       .  S
Cd3435     O3439   2.094       .  S
Cd3435     O3448   2.124       .  S
Cd3435     O3437   1.985       .  S
O3436      C3446   1.290       .  A
Cd3438     O3440   2.100       .  S
O3439      C3446   1.282       .  A
C3441      O3445   1.281       .  A
C3447      O3448   1.283       .  A
C3449      C3450   1.389       .  A
C3449      C3454   1.395       .  A
C3450      C3451   1.380       .  A
C3450      H3463   1.074       .  S
C3451      C3452   1.409       .  A
C3451      H3464   1.078   1_556  S
C3452      C3458   1.411   1_556  A
C3452      C3453   1.421       .  A
C3453      C3455   1.398       .  A
C3453      C3454   1.399       .  A
C3454      H3465   1.084       .  S
C3455      C3456   1.390   1_556  A
C3455      H3466   1.084       .  S
C3456      C3457   1.401       .  A
C3456      H3467   1.083       .  S
C3457      C3458   1.418       .  A
C3459      C3460   1.383       .  A
C3459      H3468   1.078       .  S
C3460      C3461   1.401       .  A
C3460      H3469   1.082       .  S
C3461      C3462   1.401       .  A
C3462      H3470   1.084       .  S
C3471      C3472   1.401       .  A
C3471      C3476   1.402   1_565  A
C3472      C3473   1.383       .  A
C3472      H3485   1.083       .  S
C3473      C3474   1.409       .  A
C3473      H3486   1.079       .  S
C3474      C3480   1.410       .  A
C3474      C3475   1.417       .  A
C3475      C3477   1.401   1_565  A
C3475      C3476   1.397   1_565  A
C3477      C3478   1.391   1_545  A
C3478      C3479   1.398       .  A
C3478      H3489   1.084   1_565  S
C3479      C3480   1.421       .  A
C3479      C3484   1.400       .  A
C3480      C3481   1.408       .  A
C3481      C3482   1.379       .  A
C3481      H3490   1.079       .  S
C3482      C3483   1.388       .  A
C3482      H3491   1.072       .  S
C3483      C3484   1.396       .  A
C3484      H3492   1.084       .  S
C3493      C3494   1.392       .  A
C3493      C3498   1.387       .  A
C3494      C3495   1.393       .  A
C3494      H3507   1.083       .  S
C3495      C3496   1.418       .  A
C3495      H3508   1.077       .  S
C3496      C3502   1.419       .  A
C3496      C3497   1.421       .  A
C3497      C3499   1.395       .  A
C3497      C3498   1.387       .  A
C3498      H3509   1.080       .  S
C3499      C3500   1.381       .  A
C3499      H3510   1.082       .  S
C3500      C3501   1.396       .  A
C3500      H3511   1.084       .  S
C3501      C3502   1.422       .  A
C3501      C3506   1.391       .  A
C3502      C3503   1.411       .  A
C3503      C3504   1.389       .  A
C3503      H3512   1.077       .  S
C3504      C3505   1.401       .  A
C3504      H3513   1.083       .  S
C3505      C3506   1.398       .  A
C3506      H3514   1.085       .  S
C3515      C3516   1.386       .  A
C3515      C3520   1.395       .  A
C3516      C3517   1.379       .  A
C3516      H3529   1.073       .  S
C3517      C3518   1.409       .  A
C3517      H3530   1.077       .  S
C3518      C3524   1.412       .  A
C3518      C3519   1.423       .  A
C3519      C3520   1.400       .  A
C3520      H3531   1.084       .  S
C3521      C3522   1.390       .  A
C3521      H3532   1.084       .  S
C3522      C3523   1.400       .  A
C3522      H3533   1.084       .  S
C3523      C3528   1.396       .  A
C3524      C3525   1.410       .  A
C3525      H3534   1.077       .  S
C3526      C3527   1.400       .  A
C3527      C3528   1.402       .  A
C3528      H3536   1.084       .  S
C3537      C3538   1.398       .  A
C3537      C3542   1.400       .  A
C3538      C3539   1.388       .  A
C3538      H3551   1.082       .  S
C3539      C3540   1.411       .  A
C3539      H3552   1.077       .  S
C3540      C3546   1.418       .  A
C3540      C3541   1.421       .  A
C3541      C3543   1.397       .  A
C3541      C3542   1.393       .  A
C3542      H3553   1.084       .  S
C3543      C3544   1.383       .  A
C3543      H3554   1.084       .  S
C3544      C3545   1.396       .  A
C3544      H3555   1.084       .  S
C3545      C3546   1.422       .  A
C3545      C3550   1.389       .  A
C3546      C3547   1.417       .  A
C3547      C3548   1.391       .  A
C3547      H3556   1.077       .  S
C3548      C3549   1.393       .  A
C3548      H3557   1.083       .  S
C3549      C3550   1.388       .  A
C3550      H3558   1.079       .  S
C3559      C3560   1.392       .  A
C3559      C3564   1.386   1_554  A
C3560      C3561   1.392   1_554  A
C3561      C3562   1.417       .  A
C3561      H3574   1.077       .  S
C3562      C3568   1.418       .  A
C3562      C3563   1.421       .  A
C3563      C3565   1.395       .  A
C3563      C3564   1.386       .  A
C3564      H3575   1.079       .  S
C3565      C3566   1.380       .  A
C3565      H3576   1.083       .  S
C3566      C3567   1.396       .  A
C3566      H3577   1.084       .  S
C3567      C3568   1.421       .  A
C3567      C3572   1.390       .  A
C3568      C3569   1.411       .  A
C3569      C3570   1.389       .  A
C3569      H3578   1.077       .  S
C3570      C3571   1.399       .  A
C3570      H3579   1.082       .  S
C3571      C3572   1.399       .  A
C3572      H3580   1.084       .  S
C3581      C3582   1.388       .  A
C3581      C3586   1.398       .  A
C3582      C3583   1.376       .  A
C3582      H3595   1.074       .  S
C3583      C3584   1.406       .  A
C3583      H3596   1.080       .  S
C3584      C3590   1.404       .  A
C3584      C3585   1.419       .  A
C3585      C3587   1.400       .  A
C3585      C3586   1.401       .  A
C3586      H3597   1.084       .  S
C3587      C3588   1.394       .  A
C3587      H3598   1.084       .  S
C3588      C3589   1.402       .  A
C3588      H3599   1.084       .  S
C3589      C3590   1.415       .  A
C3589      C3594   1.398       .  A
C3590      C3591   1.407       .  A
C3591      C3592   1.378       .  A
C3591      H3600   1.079       .  S
C3592      C3593   1.401       .  A
C3592      H3601   1.083       .  S
C3593      C3594   1.404       .  A
C3594      H3602   1.083       .  S
C3603      C3608   1.399       .  A
C3604      C3605   1.389   1_554  A
C3604      H3617   1.082       .  S
C3605      C3606   1.411       .  A
C3605      H3618   1.077   1_556  S
C3606      C3612   1.419       .  A
C3606      C3607   1.422       .  A
C3608      H3619   1.084       .  S
C3609      H3620   1.084   1_455  S
C3610      C3611   1.396       .  A
C3610      H3621   1.083       .  S
C3611      C3612   1.421       .  A
C3611      C3616   1.389       .  A
C3612      C3613   1.417       .  A
C3613      C3614   1.393       .  A
C3613      H3622   1.077       .  S
C3614      C3615   1.393       .  A
C3614      H3623   1.083       .  S
C3615      C3616   1.387       .  A
C3616      H3624   1.078       .  S
C3625      C3626   1.400       .  A
C3625      C3630   1.399       .  A
C3626      C3627   1.391       .  A
C3626      H3639   1.083       .  S
C3627      C3628   1.412       .  A
C3627      H3640   1.077       .  S
C3629      C3631   1.397       .  A
C3631      C3632   1.381       .  A
C3631      H3642   1.084       .  S
C3632      C3633   1.396       .  A
C3632      H3643   1.083       .  S
C3633      C3634   1.422       .  A
C3633      C3638   1.388       .  A
C3635      H3644   1.077       .  S
C3636      C3637   1.394       .  A
C3637      C3638   1.386   1_545  A
C3638      H3646   1.077       .  S
C3647      C3648   1.399       .  A
C3647      C3652   1.400       .  A
C3648      C3649   1.389       .  A
C3648      H3661   1.083       .  S
C3649      C3650   1.411       .  A
C3650      C3651   1.421       .  A
C3651      C3653   1.397       .  A
C3651      C3652   1.391       .  A
C3652      H3663   1.084       .  S
C3653      C3654   1.382       .  A
C3653      H3664   1.084       .  S
C3654      H3665   1.082       .  S
C3655      C3656   1.421       .  A
C3655      C3660   1.389       .  A
C3656      C3657   1.417       .  A
C3657      C3658   1.392       .  A
C3657      H3666   1.077       .  S
C3658      C3659   1.392       .  A
C3658      H3667   1.083       .  S
C3659      C3660   1.388       .  A
C3660      H3668   1.079       .  S
C3669      C3670   1.398       .  A
C3669      C3674   1.400       .  A
C3670      C3671   1.387       .  A
C3670      H3683   1.083       .  S
C3671      C3672   1.411       .  A
C3671      H3684   1.077       .  S
C3672      C3678   1.417       .  A
C3672      C3673   1.421       .  A
C3673      C3675   1.398       .  A
C3673      C3674   1.393       .  A
C3674      H3685   1.084       .  S
C3675      C3676   1.383       .  A
C3675      H3686   1.084       .  S
C3676      C3677   1.396       .  A
C3676      H3687   1.083       .  S
C3677      C3678   1.421       .  A
C3677      C3682   1.389       .  A
C3678      C3679   1.417       .  A
C3679      C3680   1.392       .  A
C3679      H3688   1.077       .  S
C3680      C3681   1.391       .  A
C3680      H3689   1.083       .  S
C3681      C3682   1.387       .  A
C3682      H3690   1.077       .  S
C3691      C3692   1.401       .  A
C3691      C3696   1.402       .  A
C3692      C3693   1.382       .  A
C3692      H3705   1.083       .  S
C3693      C3694   1.408       .  A
C3693      H3706   1.079       .  S
C3694      C3700   1.407       .  A
C3694      C3695   1.415       .  A
C3695      C3697   1.402       .  A
C3695      C3696   1.396       .  A
C3696      H3707   1.083       .  S
C3697      C3698   1.393       .  A
C3697      H3708   1.083       .  S
C3698      C3699   1.399       .  A
C3698      H3709   1.084       .  S
C3699      C3700   1.419       .  A
C3699      C3704   1.400       .  A
C3700      C3701   1.407       .  A
C3701      C3702   1.379       .  A
C3701      H3710   1.080       .  S
C3702      C3703   1.391       .  A
C3702      H3711   1.076       .  S
C3703      C3704   1.397       .  A
C3704      H3712   1.084       .  S
