geometry optimzed in LAMMPS
_audit_creation_date              2020-11-30 
_audit_creation_method            'lammps2cif' 
_symmetry_space_group_name_H-M    'P1' 
_symmetry_Int_Tables_number       1 
_symmetry_cell_setting            triclinic 
loop_ 
_symmetry_equiv_pos_as_xyz 
  x,y,z 
_cell_length_a                    70.55723087 
_cell_length_b                    70.55171631532653 
_cell_length_c                    70.57351784724656 
_cell_angle_alpha                 89.96542497175021 
_cell_angle_beta                  89.99812667484215 
_cell_angle_gamma                 89.9944977086908 
loop_ 
_atom_site_label 
_atom_site_type_symbol 
_atom_site_fract_x 
_atom_site_fract_y 
_atom_site_fract_z 
_atom_site_charge 
N1          N  0.63976711  0.18784997  0.87243604    -0.27100
N2          N  0.64922735  0.19043637  0.85647981    -0.34900
C3          C  0.65528271  0.20844676  0.85560077     0.01300
C4          C  0.64911254  0.21780802  0.87162132     0.07300
C5          C  0.63923648  0.20438804  0.88202612    -0.05800
H6          H  0.66338635  0.21436023  0.84400040     0.08000
H7          H  0.63278896  0.20630716  0.89580079     0.09200
Cu8        Cu  0.65218007  0.16992896  0.83579052     0.44200
Cu9        Cu  0.62997924  0.16114970  0.88040923     0.42000
Cu10       Cu  0.63034403  0.12471941  0.84272928     0.43900
N11         N  0.64772148  0.15080518  0.81406845    -0.34400
N12         N  0.63853899  0.13460101  0.81607210    -0.28700
C13         C  0.63625024  0.12666817  0.79880471    -0.04800
C14         C  0.64460545  0.13846003  0.78546375     0.07400
C15         C  0.65179194  0.15351113  0.79569522     0.01200
H16         H  0.62924457  0.11328443  0.79619406     0.08900
H17         H  0.65894833  0.16587880  0.79012244     0.07900
N18         N  0.62670817  0.11907879  0.87156571    -0.35900
N19         N  0.62646975  0.13215782  0.88501468    -0.28100
C20         C  0.62519230  0.12355083  0.90199773    -0.03300
C21         C  0.62485125  0.10410719  0.89920983     0.05300
C22         C  0.62558161  0.10185131  0.87971957     0.03400
H23         H  0.62458541  0.13102002  0.91533964     0.08500
H24         H  0.62594685  0.08858378  0.87204886     0.07300
N25         N  0.83328011  0.18568091  0.68001592    -0.27100
N26         N  0.81641157  0.18911885  0.68735168    -0.34900
C27         C  0.81529544  0.20743591  0.69232974     0.01300
C28         C  0.83214537  0.21610229  0.68753123     0.07300
C29         C  0.84329609  0.20196447  0.67970408    -0.05800
H30         H  0.80288428  0.21409296  0.69839529     0.08000
H31         H  0.85766498  0.20332350  0.67453180     0.09200
Cu32       Cu  0.79491089  0.16940731  0.68775021     0.44200
Cu33       Cu  0.84103202  0.15840834  0.67190885     0.42000
Cu34       Cu  0.80173864  0.12390626  0.66589377     0.43900
N35         N  0.77307803  0.15112572  0.68137902    -0.34400
N36         N  0.77502260  0.13471492  0.67256761    -0.28700
C37         C  0.75768515  0.12690242  0.67030623    -0.04800
C38         C  0.74441533  0.13905511  0.67824154     0.07400
C39         C  0.75471729  0.15418190  0.68507517     0.01200
H40         H  0.75503523  0.11315056  0.66407430     0.08900
H41         H  0.74929455  0.16653220  0.69236267     0.07900
N42         N  0.83054412  0.11707997  0.66523212    -0.35900
N43         N  0.84446716  0.12936599  0.66783184    -0.28100
C44         C  0.86101687  0.11993251  0.66820871    -0.03300
C45         C  0.85755668  0.10071761  0.66577075     0.05300
C46         C  0.83798749  0.09957298  0.66367057     0.03400
H47         H  0.87461701  0.12659797  0.67058350     0.08500
H48         H  0.82955043  0.08711841  0.66105622     0.07300
N49         N  0.78204559  0.34393640  0.87136836    -0.27100
N50         N  0.78177870  0.33134718  0.85752967    -0.34900
C51         C  0.76506123  0.32228812  0.85757929     0.01300
C52         C  0.75410808  0.32970529  0.87198522     0.07300
C53         C  0.76525139  0.34345835  0.88047296    -0.05800
H54         H  0.76091454  0.31162130  0.84737865     0.08000
H55         H  0.76151446  0.35230581  0.89241799     0.09200
Cu56       Cu  0.80298824  0.32900499  0.83758907     0.44200
Cu57       Cu  0.80602351  0.36011149  0.87686064     0.42000
Cu58       Cu  0.84205324  0.36146816  0.83888869     0.43900
N59         N  0.82103513  0.33345070  0.81505762    -0.34400
N60         N  0.83465038  0.34630949  0.81468795    -0.28700
C61         C  0.84259609  0.34635276  0.79728082    -0.04800
C62         C  0.83359415  0.33264217  0.78646516     0.07400
C63         C  0.82009309  0.32478652  0.79820007     0.01200
H64         H  0.85436449  0.35522065  0.79303769     0.08900
H65         H  0.81007280  0.31372926  0.79467254     0.07900
N66         N  0.84675881  0.36981493  0.86682406    -0.35900
N67         N  0.83374280  0.36949142  0.88033024    -0.28100
C68         C  0.84205341  0.37339581  0.89702184    -0.03300
C69         C  0.86121455  0.37640751  0.89400443     0.05300
C70         C  0.86367047  0.37386207  0.87467600     0.03400
H71         H  0.83486045  0.37290642  0.91055297     0.08500
H72         H  0.87699030  0.37359023  0.86708397     0.07300
N73         N  0.65115949  0.26758643  0.88551167    -0.27100
N74         N  0.66804365  0.26520476  0.87775975    -0.34900
C75         C  0.66983493  0.24717513  0.87199763     0.01300
C76         C  0.65343376  0.23757197  0.87659486     0.07300
C77         C  0.64184672  0.25087863  0.88522649    -0.05800
H78         H  0.68219449  0.24148450  0.86492675     0.08000
H79         H  0.62744490  0.24880901  0.89006398     0.09200
Cu80       Cu  0.68820943  0.28628632  0.87558080     0.44200
Cu81       Cu  0.64144039  0.29429658  0.89353141     0.42000
Cu82       Cu  0.67654753  0.33316690  0.89067725     0.43900
N83         N  0.70792209  0.30781401  0.87746675    -0.34400
N84         N  0.70405569  0.32497724  0.88387831    -0.28700
C85         C  0.72008045  0.33539530  0.88364614    -0.04800
C86         C  0.73454426  0.32419936  0.87651027     0.07400
C87         C  0.72631285  0.30686856  0.87271718     0.01200
H88         H  0.72094235  0.35019554  0.88755243     0.08900
H89         H  0.73314802  0.29448607  0.86679792     0.07900
N90         N  0.64741095  0.33698358  0.89354925    -0.35900
N91         N  0.63487363  0.32307968  0.89493313    -0.28100
C92         C  0.61735357  0.33061457  0.89557685    -0.03300
C93         C  0.61887303  0.35012152  0.89421448     0.05300
C94         C  0.63814748  0.35365832  0.89317196     0.03400
H95         H  0.60439222  0.32244661  0.89626849     0.08500
H96         H  0.64501185  0.36732477  0.89218733     0.07300
N97         N  0.84369502  0.26640120  0.68583379    -0.27100
N98         N  0.83731004  0.26464715  0.70335977    -0.34900
C99         C  0.83274344  0.24647701  0.70664255     0.01300
C100        C  0.83679877  0.23614049  0.69057850     0.07300
C101        C  0.84373768  0.24914524  0.67759503    -0.05800
H102        H  0.82678845  0.24120292  0.71975551     0.08000
H103        H  0.84757555  0.24644207  0.66300287     0.09200
Cu104      Cu  0.83544550  0.28668070  0.72244215     0.44200
Cu105      Cu  0.84984727  0.29281612  0.67398050     0.42000
Cu106      Cu  0.84969438  0.33271091  0.70818761     0.43900
N107        N  0.83776097  0.30904782  0.74107900    -0.34400
N108        N  0.84383582  0.32607803  0.73623992    -0.28700
C109        C  0.84401399  0.33722675  0.75177114    -0.04800
C110        C  0.83750793  0.32658511  0.76694456     0.07400
C111        C  0.83367104  0.30886422  0.75962098     0.01200
H112        H  0.84780100  0.35208517  0.75183957     0.08900
H113        H  0.82818061  0.29670799  0.76719237     0.07900
N114        N  0.85192478  0.33554085  0.67897149    -0.35900
N115        N  0.85195070  0.32143062  0.66660340    -0.28100
C116        C  0.85237061  0.32877296  0.64896891    -0.03300
C117        C  0.85288215  0.34836733  0.65033556     0.05300
C118        C  0.85234078  0.35209008  0.66955620     0.03400
H119        H  0.85195416  0.32047918  0.63608636     0.08500
H120        H  0.85131687  0.36581101  0.67628316     0.07300
N121        N  0.69407895  0.12674713  0.67910677    -0.27100
N122        N  0.69535459  0.13877260  0.69338773    -0.34900
C123        C  0.71322264  0.14499598  0.69482760     0.01300
C124        C  0.72392621  0.13634241  0.68095350     0.07300
C125        C  0.71139066  0.12477969  0.67117274    -0.05800
H126        H  0.71821372  0.15451008  0.70576167     0.08000
H127        H  0.71456653  0.11574748  0.65920391     0.09200
Cu128      Cu  0.67398937  0.14371976  0.71260412     0.44200
Cu129      Cu  0.66812589  0.11481883  0.67168052     0.42000
Cu130      Cu  0.63109479  0.11774911  0.70877439     0.43900
N131        N  0.65640540  0.13898224  0.73538674    -0.34400
N132        N  0.64113647  0.12816906  0.73469579    -0.28700
C133        C  0.63442568  0.12596211  0.75250324    -0.04800
C134        C  0.64604078  0.13608316  0.76475943     0.07400
C135        C  0.65972294  0.14416021  0.75336297     0.01200
H136        H  0.62197892  0.11781466  0.75621622     0.08900
H137        H  0.67164885  0.15267725  0.75787599     0.07900
N138        N  0.62587991  0.11217342  0.68003887    -0.35900
N139        N  0.63923972  0.11077684  0.66692481    -0.28100
C140        C  0.63099232  0.10830812  0.64990307    -0.03300
C141        C  0.61150584  0.10842444  0.65220886     0.05300
C142        C  0.60880825  0.11068493  0.67157344     0.03400
H143        H  0.63863183  0.10726627  0.63665426     0.08500
H144        H  0.59546116  0.11120575  0.67905686     0.07300
N145        N  0.19591333  0.33867012  0.86226359    -0.27100
N146        N  0.19830481  0.32787867  0.84714541    -0.34900
C147        C  0.21579532  0.32038725  0.84752500     0.01300
C148        C  0.22499290  0.32700933  0.86347139     0.07300
C149        C  0.21204012  0.33863688  0.87251524    -0.05800
H150        H  0.22147180  0.31096360  0.83684781     0.08000
H151        H  0.21392937  0.34591812  0.88586997     0.09200
Cu152      Cu  0.17816000  0.32460960  0.82605887     0.44200
Cu153      Cu  0.16995037  0.35094556  0.86872551     0.42000
Cu154      Cu  0.13345538  0.34816657  0.83163579     0.43900
N155        N  0.15835098  0.32696471  0.80452865    -0.34400
N156        N  0.14234986  0.33659224  0.80605450    -0.28700
C157        C  0.13332657  0.33634159  0.78920905    -0.04800
C158        C  0.14412688  0.32581734  0.77666351     0.07400
C159        C  0.15980629  0.32004357  0.78686917     0.01200
H160        H  0.11967887  0.34278456  0.78649301     0.08900
H161        H  0.17154621  0.31159650  0.78177234     0.07900
N162        N  0.12814844  0.35524439  0.85974873    -0.35900
N163        N  0.14135225  0.35652983  0.87300936    -0.28100
C164        C  0.13297036  0.35999730  0.88976765    -0.03300
C165        C  0.11357816  0.36065758  0.88702134     0.05300
C166        C  0.11103635  0.35778716  0.86778098     0.03400
H167        H  0.14039180  0.36107379  0.90314247     0.08500
H168        H  0.09776253  0.35735472  0.86014247     0.07300
N169        N  0.14403952  0.18312346  0.66859053    -0.27100
N170        N  0.16069295  0.18677435  0.67632235    -0.34900
C171        C  0.16205449  0.20540700  0.67981064     0.01300
C172        C  0.14558824  0.21405991  0.67375416     0.07300
C173        C  0.13440842  0.19955223  0.66664607    -0.05800
H174        H  0.17407963  0.21213624  0.68653547     0.08000
H175        H  0.12001777  0.20069458  0.66148121     0.09200
Cu176      Cu  0.18104184  0.16643544  0.68159855     0.44200
Cu177      Cu  0.13536241  0.15536775  0.66348065     0.42000
Cu178      Cu  0.17273364  0.11852549  0.66719666     0.43900
N179        N  0.20190033  0.14594861  0.68117035    -0.34400
N180        N  0.19944882  0.12856000  0.67466697    -0.28700
C181        C  0.21628005  0.11946917  0.67489656    -0.04800
C182        C  0.22974496  0.13177288  0.68217436     0.07400
C183        C  0.22010755  0.14832849  0.68605666     0.01200
H184        H  0.21843795  0.10491830  0.67057805     0.08900
H185        H  0.22597703  0.16133442  0.69166575     0.07900
N186        N  0.14390118  0.11303973  0.66393384    -0.35900
N187        N  0.13057659  0.12620931  0.66267727    -0.28100
C188        C  0.11355612  0.11767618  0.66163329    -0.03300
C189        C  0.11624036  0.09823385  0.66196440     0.05300
C190        C  0.13563652  0.09583902  0.66369900     0.03400
H191        H  0.10015208  0.12510575  0.66107697     0.08500
H192        H  0.14318958  0.08254612  0.66489651     0.07300
N193        N  0.34421159  0.18758468  0.87295918    -0.27100
N194        N  0.33421953  0.18957014  0.85723714    -0.34900
C195        C  0.32628138  0.20683946  0.85692624     0.01300
C196        C  0.33170694  0.21639987  0.87307195     0.07300
C197        C  0.34317030  0.20386000  0.88296082    -0.05800
H198        H  0.31758030  0.21221592  0.84549855     0.08000
H199        H  0.34986508  0.20622256  0.89654670     0.09200
Cu200      Cu  0.33306799  0.16972427  0.83580761     0.44200
Cu201      Cu  0.35730550  0.16197670  0.87987611     0.42000
Cu202      Cu  0.36018395  0.12757273  0.84034437     0.43900
N203        N  0.33789774  0.15154037  0.81342874    -0.34400
N204        N  0.34886427  0.13640747  0.81456220    -0.28700
C205        C  0.35010531  0.12839288  0.79724830    -0.04800
C206        C  0.33921479  0.13900502  0.78479688     0.07400
C207        C  0.33166000  0.15348482  0.79557254     0.01200
H208        H  0.35793179  0.11559591  0.79407900     0.08900
H209        H  0.32251053  0.16480590  0.79073942     0.07900
N210        N  0.36537449  0.12115347  0.86870048    -0.35900
N211        N  0.36437599  0.13338689  0.88289740    -0.28100
C212        C  0.36633652  0.12387710  0.89934642    -0.03300
C213        C  0.36838398  0.10476851  0.89535764     0.05300
C214        C  0.36796766  0.10363620  0.87578171     0.03400
H215        H  0.36515167  0.13023915  0.91324144     0.08500
H216        H  0.36887765  0.09095743  0.86723903     0.07300
N217        N  0.32703951  0.26607880  0.88631739    -0.27100
N218        N  0.31056636  0.26300924  0.87796858    -0.34900
C219        C  0.30957410  0.24477989  0.87263350     0.01300
C220        C  0.32611547  0.23583118  0.87808540     0.07300
C221        C  0.33690477  0.24971050  0.88680074    -0.05800
H222        H  0.29781840  0.23858911  0.86498256     0.08000
H223        H  0.35125388  0.24830716  0.89201842     0.09200
Cu224      Cu  0.29036415  0.28383117  0.87376882     0.44200
Cu225      Cu  0.33571399  0.29318335  0.89379865     0.42000
Cu226      Cu  0.30055714  0.33157204  0.88889598     0.43900
N227        N  0.27067125  0.30553484  0.87332117    -0.34400
N228        N  0.27383279  0.32281227  0.87985291    -0.28700
C229        C  0.25782638  0.33311202  0.87801243    -0.04800
C230        C  0.24417774  0.32176235  0.86963606     0.07400
C231        C  0.25282629  0.30445506  0.86681710     0.01200
H232        H  0.25649421  0.34793612  0.88169148     0.08900
H233        H  0.24660749  0.29195367  0.86048502     0.07900
N234        N  0.32944149  0.33579466  0.89357664    -0.35900
N235        N  0.34196313  0.32192258  0.89531391    -0.28100
C236        C  0.35942319  0.32942872  0.89666606    -0.03300
C237        C  0.35792423  0.34893759  0.89555537     0.05300
C238        C  0.33869650  0.35249465  0.89385018     0.03400
H239        H  0.37225486  0.32119570  0.89818692     0.08500
H240        H  0.33200205  0.36619257  0.89219241     0.07300
N241        N  0.28002269  0.11974175  0.68335404    -0.27100
N242        N  0.27858971  0.13126221  0.69803813    -0.34900
C243        C  0.26054755  0.13694061  0.69985676     0.01300
C244        C  0.24996682  0.12841884  0.68580964     0.07300
C245        C  0.26269695  0.11752437  0.67556266    -0.05800
H246        H  0.25547432  0.14644925  0.71076052     0.08000
H247        H  0.25974040  0.10922991  0.66301766     0.09200
Cu248      Cu  0.30067927  0.13755058  0.71608057     0.44200
Cu249      Cu  0.30619315  0.10952838  0.67436131     0.42000
Cu250      Cu  0.34557279  0.11554108  0.70832798     0.43900
N251        N  0.32128851  0.13575337  0.73669761    -0.34400
N252        N  0.33741885  0.12647780  0.73456857    -0.28700
C253        C  0.34647902  0.12599154  0.75141080    -0.04800
C254        C  0.33550771  0.13565037  0.76455196     0.07400
C255        C  0.31973309  0.14167892  0.75468798     0.01200
H256        H  0.36004238  0.11927178  0.75386165     0.08900
H257        H  0.30763830  0.14923324  0.76032743     0.07900
N258        N  0.34893229  0.10845650  0.67978010    -0.35900
N259        N  0.33475743  0.10611095  0.66771544    -0.28100
C260        C  0.34187536  0.10254859  0.65038925    -0.03300
C261        C  0.36148488  0.10289308  0.65143320     0.05300
C262        C  0.36541044  0.10645959  0.67035184     0.03400
H263        H  0.33327177  0.09978038  0.63804415     0.08500
H264        H  0.37928129  0.10798166  0.67670733     0.07300
N265        N  0.13090542  0.26375377  0.67394834    -0.27100
N266        N  0.13934612  0.26215116  0.69058424    -0.34900
C267        C  0.14551944  0.24433442  0.69288905     0.01300
C268        C  0.14051865  0.23399082  0.67710470     0.07300
C269        C  0.13117996  0.24666696  0.66530377    -0.05800
H270        H  0.15303514  0.23925360  0.70525500     0.08000
H271        H  0.12571898  0.24388201  0.65125479     0.09200
Cu272      Cu  0.14156567  0.28378449  0.71001815     0.44200
Cu273      Cu  0.12154787  0.29008458  0.66410753     0.42000
Cu274      Cu  0.12114604  0.32884525  0.69991857     0.43900
N275        N  0.13908210  0.30486604  0.73002177    -0.34400
N276        N  0.13051591  0.32123355  0.72694056    -0.28700
C277        C  0.13049034  0.33127115  0.74322084    -0.04800
C278        C  0.13975331  0.32067956  0.75695714     0.07400
C279        C  0.14502746  0.30410478  0.74805945     0.01200
H280        H  0.12477356  0.34541408  0.74476706     0.08900
H281        H  0.15249108  0.29223686  0.75428286     0.07900
N282        N  0.11741980  0.33265054  0.67077443    -0.35900
N283        N  0.11776985  0.31886755  0.65802229    -0.28100
C284        C  0.11674199  0.32658574  0.64058748    -0.03300
C285        C  0.11581037  0.34611199  0.64237720     0.05300
C286        C  0.11603920  0.34941228  0.66170977     0.03400
H287        H  0.11687358  0.31852729  0.62756096     0.08500
H288        H  0.11599189  0.36307641  0.66865926     0.07300
N289        N  0.34286704  0.81973915  0.81191152    -0.27100
N290        N  0.33248996  0.80428034  0.80992195    -0.34900
C291        C  0.32590200  0.80339502  0.79211849     0.01300
C292        C  0.33254179  0.81895124  0.78225917     0.07300
C293        C  0.34331332  0.82906840  0.79520911    -0.05800
H294        H  0.31722823  0.79199585  0.78665700     0.08000
H295        H  0.35068950  0.84228636  0.79276064     0.09200
Cu296      Cu  0.32894601  0.78407886  0.83082770     0.44200
Cu297      Cu  0.35484330  0.82696027  0.83788748     0.42000
Cu298      Cu  0.35332088  0.78951547  0.87480034     0.43900
N299        N  0.33126016  0.76254167  0.85053341    -0.34400
N300        N  0.34136281  0.76380742  0.86625073    -0.28700
C301        C  0.34128985  0.74676057  0.87497613    -0.04800
C302        C  0.33032188  0.73442919  0.86428322     0.07400
C303        C  0.32417962  0.74495461  0.84898414     0.01200
H304        H  0.34828448  0.74370509  0.88827306     0.08900
H305        H  0.31555319  0.74005811  0.83729472     0.07900
N306        N  0.36023672  0.81791999  0.87971117    -0.35900
N307        N  0.36111845  0.83117124  0.86642863    -0.28100
C308        C  0.36432228  0.84805631  0.87470052    -0.03300
C309        C  0.36553718  0.84540305  0.89408900     0.05300
C310        C  0.36270677  0.82615634  0.89675130     0.03400
H311        H  0.36438056  0.86144907  0.86723295     0.08500
H312        H  0.36171738  0.81880517  0.91017318     0.07300
N313        N  0.19785299  0.81492180  0.66785338    -0.27100
N314        N  0.20104611  0.79784082  0.67488886    -0.34900
C315        C  0.21961440  0.79590854  0.67851826     0.01300
C316        C  0.22872416  0.81240992  0.67328659     0.07300
C317        C  0.21453782  0.82422863  0.66652524    -0.05800
H318        H  0.22600164  0.78342807  0.68474191     0.08000
H319        H  0.21608267  0.83878447  0.66195080     0.09200
Cu320      Cu  0.18038756  0.77744479  0.67912786     0.44200
Cu321      Cu  0.17039121  0.82467652  0.66251280     0.42000
Cu322      Cu  0.13341166  0.78730015  0.66404809     0.43900
N323        N  0.15940366  0.75696369  0.67829783    -0.34400
N324        N  0.14224466  0.76007256  0.67147546    -0.28700
C325        C  0.13247123  0.74361509  0.67164309    -0.04800
C326        C  0.14406404  0.72965629  0.67921452     0.07400
C327        C  0.16093751  0.73867510  0.68336630     0.01200
H328        H  0.11787622  0.74207024  0.66720921     0.08900
H329        H  0.17353767  0.73233388  0.68938559     0.07900
N330        N  0.12809216  0.81631474  0.66170829    -0.35900
N331        N  0.14120407  0.82974668  0.66123058    -0.28100
C332        C  0.13253746  0.84677655  0.66084698    -0.03300
C333        C  0.11309921  0.84396977  0.66136637     0.05300
C334        C  0.11085401  0.82447553  0.66166106     0.03400
H335        H  0.13985204  0.86025308  0.66074388     0.08500
H336        H  0.09767284  0.81667943  0.66176382     0.07300
N337        N  0.13831546  0.61079173  0.81490226    -0.27100
N338        N  0.15223607  0.62327852  0.81429869    -0.34900
C339        C  0.15356198  0.63046816  0.79676882     0.01300
C340        C  0.13994756  0.62201058  0.78556383     0.07300
C341        C  0.13045756  0.60954025  0.79748491    -0.05800
H342        H  0.16423333  0.64054612  0.79232531     0.08000
H343        H  0.11880067  0.60029380  0.79379194     0.09200
Cu344      Cu  0.17100741  0.62757734  0.83618920     0.44200
Cu345      Cu  0.13187377  0.59681093  0.84015181     0.42000
Cu346      Cu  0.17056586  0.59583611  0.87577716     0.43900
N347        N  0.19405058  0.62350082  0.85358318    -0.34400
N348        N  0.19484028  0.61068043  0.86722518    -0.28700
C349        C  0.21276820  0.61007389  0.87393967    -0.04800
C350        C  0.22347946  0.62336754  0.86411832     0.07400
C351        C  0.21111246  0.63158932  0.85143228     0.01200
H352        H  0.21756737  0.60089586  0.88524951     0.08900
H353        H  0.21441983  0.64222661  0.84088752     0.07900
N354        N  0.14244157  0.58776947  0.88112510    -0.35900
N355        N  0.12870565  0.58834858  0.86834557    -0.28100
C356        C  0.11208669  0.58460554  0.87691802    -0.03300
C357        C  0.11533208  0.58119837  0.89599687     0.05300
C358        C  0.13477805  0.58352057  0.89812108     0.03400
H359        H  0.09852180  0.58582423  0.86993923     0.08500
H360        H  0.14266219  0.58301784  0.91126007     0.07300
N361        N  0.27461374  0.62692699  0.87127969    -0.27100
N362        N  0.27064136  0.64418750  0.86515933    -0.34900
C363        C  0.25195037  0.64541241  0.86174096     0.01300
C364        C  0.24367633  0.62820692  0.86620123     0.07300
C365        C  0.25844222  0.61677318  0.87222668    -0.05800
H366        H  0.24484047  0.65804474  0.85672634     0.08000
H367        H  0.25757038  0.60210073  0.87660399     0.09200
Cu368      Cu  0.29049022  0.66584943  0.86331540     0.44200
Cu369      Cu  0.30213814  0.61841636  0.87733263     0.42000
Cu370      Cu  0.33736931  0.65667239  0.88118933     0.43900
N371        N  0.31085864  0.68678009  0.86698863    -0.34400
N372        N  0.32766025  0.68380417  0.87474228    -0.28700
C373        C  0.33704470  0.70044256  0.87575919    -0.04800
C374        C  0.32564877  0.71441506  0.86797438     0.07400
C375        C  0.30923861  0.70522067  0.86251313     0.01200
H376        H  0.35140171  0.70206809  0.88088954     0.08900
H377        H  0.29700298  0.71147751  0.85570523     0.07900
N378        N  0.34376138  0.62784831  0.88229863    -0.35900
N379        N  0.33105885  0.61411276  0.88088739    -0.28100
C380        C  0.34000528  0.59728748  0.88159664    -0.03300
C381        C  0.35925918  0.60053492  0.88328812     0.05300
C382        C  0.36111327  0.62006658  0.88386163     0.03400
H383        H  0.33301953  0.58366474  0.88071968     0.08500
H384        H  0.37405576  0.62808556  0.88558502     0.07300
N385        N  0.12981031  0.62351703  0.73469425    -0.27100
N386        N  0.13876278  0.63976558  0.73726280    -0.34900
C387        C  0.14349890  0.64152380  0.75557623     0.01300
C388        C  0.13710112  0.62573577  0.76520703     0.07300
C389        C  0.12842565  0.61454190  0.75156106    -0.05800
H390        H  0.15079313  0.65363703  0.76150089     0.08000
H391        H  0.12190290  0.60082560  0.75366592     0.09200
Cu392      Cu  0.14265795  0.65994890  0.71644514     0.44200
Cu393      Cu  0.12068640  0.61506280  0.70782220     0.42000
Cu394      Cu  0.11974019  0.65337643  0.67183104     0.43900
N395        N  0.13970185  0.68145689  0.69683463    -0.34400
N396        N  0.13006117  0.67973321  0.68087027    -0.28700
C397        C  0.12952238  0.69680668  0.67219443    -0.04800
C398        C  0.13958940  0.70964127  0.68318961     0.07400
C399        C  0.14587992  0.69936804  0.69859913     0.01200
H400        H  0.12290520  0.69951776  0.65863347     0.08900
H401        H  0.15413922  0.70459805  0.71040995     0.07900
N402        N  0.11396996  0.62472974  0.66626256    -0.35900
N403        N  0.11457169  0.61102259  0.67909775    -0.28100
C404        C  0.11132900  0.59429756  0.67045827    -0.03300
C405        C  0.10823033  0.59753830  0.65133746     0.05300
C406        C  0.11022887  0.61699114  0.64920078     0.03400
H407        H  0.11146581  0.58069740  0.67754625     0.08500
H408        H  0.10959574  0.62487989  0.63606516     0.07300
N409        N  0.27831593  0.82748985  0.67516101    -0.27100
N410        N  0.27666626  0.81775326  0.69107522    -0.34900
C411        C  0.25900267  0.81087883  0.69249318     0.01300
C412        C  0.24879340  0.81681414  0.67691681     0.07300
C413        C  0.26141425  0.82739669  0.66615364    -0.05800
H414        H  0.25376834  0.80273479  0.70438998     0.08000
H415        H  0.25860611  0.83426030  0.65273248     0.09200
Cu416      Cu  0.29738917  0.81647598  0.71163554     0.44200
Cu417      Cu  0.30419303  0.83956689  0.66729087     0.42000
Cu418      Cu  0.33824017  0.84587493  0.70690967     0.43900
N419        N  0.31563878  0.82207865  0.73376394    -0.34400
N420        N  0.33018285  0.83382128  0.73266183    -0.28700
C421        C  0.33843715  0.83499280  0.74988407    -0.04800
C422        C  0.32859075  0.82325726  0.76222070     0.07400
C423        C  0.31428812  0.81533918  0.75148126     0.01200
H424        H  0.35094275  0.84328342  0.75303361     0.08900
H425        H  0.30355375  0.80545855  0.75620512     0.07900
N426        N  0.34451028  0.85035359  0.67836073    -0.35900
N427        N  0.33256123  0.84760687  0.66416204    -0.28100
C428        C  0.34205465  0.84955913  0.64772044    -0.03300
C429        C  0.36091381  0.85357273  0.65163449     0.05300
C430        C  0.36178295  0.85426588  0.67126967     0.03400
H431        H  0.33583687  0.84742597  0.63387232     0.08500
H432        H  0.37399910  0.85719770  0.67997006     0.07300
N433        N  0.78040162  0.81473307  0.66062237    -0.27100
N434        N  0.77764129  0.79876407  0.67002507    -0.34900
C435        C  0.75961724  0.79813930  0.67608506     0.01300
C436        C  0.75046483  0.81439255  0.67007928     0.07300
C437        C  0.76403308  0.82462784  0.66023870    -0.05800
H438        H  0.75363448  0.78669173  0.68435424     0.08000
H439        H  0.76236301  0.83852814  0.65397709     0.09200
Cu440      Cu  0.79836050  0.77830951  0.67410013     0.44200
Cu441      Cu  0.80707528  0.82249983  0.65080840     0.42000
Cu442      Cu  0.84447661  0.78607530  0.65397590     0.43900
N443        N  0.81947485  0.75786366  0.67374560    -0.34400
N444        N  0.83602164  0.76008972  0.66523184    -0.28700
C445        C  0.84590015  0.74376379  0.66657825    -0.04800
C446        C  0.83509729  0.73086939  0.67671100     0.07400
C447        C  0.81852775  0.74031664  0.68109685     0.01200
H448        H  0.86009834  0.74166482  0.66118473     0.08900
H449        H  0.80652125  0.73474768  0.68884355     0.07900
N450        N  0.84933367  0.81463978  0.64807901    -0.35900
N451        N  0.83584612  0.82763969  0.64694435    -0.28100
C452        C  0.84392709  0.84483864  0.64549080    -0.03300
C453        C  0.86342191  0.84267107  0.64557642     0.05300
C454        C  0.86632143  0.82332174  0.64734463     0.03400
H455        H  0.83617602  0.85807132  0.64553821     0.08500
H456        H  0.87976495  0.81621892  0.64934617     0.07300
N457        N  0.63955047  0.81940884  0.81100636    -0.27100
N458        N  0.64707031  0.80252862  0.80793782    -0.34900
C459        C  0.65224540  0.80119955  0.78967828     0.01300
C460        C  0.64749430  0.81791752  0.78065944     0.07300
C461        C  0.63941551  0.82919081  0.79456391    -0.05800
H462        H  0.65866506  0.78879851  0.78334589     0.08000
H463        H  0.63427575  0.84354949  0.79296368     0.09200
Cu464      Cu  0.64850352  0.78137528  0.82820240     0.44200
Cu465      Cu  0.63111372  0.82797859  0.83798927     0.42000
Cu466      Cu  0.62879250  0.79020980  0.87420864     0.43900
N467        N  0.64425542  0.76033598  0.84819176    -0.34400
N468        N  0.63595478  0.76309038  0.86475736    -0.28700
C469        C  0.63471247  0.74630210  0.87388241    -0.04800
C470        C  0.64289994  0.73251067  0.86252616     0.07400
C471        C  0.64882570  0.74195178  0.84644115     0.01200
H472        H  0.62910251  0.74443711  0.88802817     0.08900
H473        H  0.65601271  0.73590242  0.83432452     0.07900
N474        N  0.62613557  0.81916678  0.87988931    -0.35900
N475        N  0.62683938  0.83267764  0.86686694    -0.28100
C476        C  0.62563503  0.84966060  0.87549016    -0.03300
C477        C  0.62392597  0.84678366  0.89483748     0.05300
C478        C  0.62453525  0.82728105  0.89709432     0.03400
H479        H  0.62655296  0.86315495  0.86825516     0.08500
H480        H  0.62417429  0.81955743  0.91033795     0.07300
N481        N  0.83605975  0.61362070  0.81791760    -0.27100
N482        N  0.82089134  0.62441871  0.81595807    -0.34900
C483        C  0.82053661  0.63166656  0.79838775     0.01300
C484        C  0.83610366  0.62493506  0.78866191     0.07300
C485        C  0.84566975  0.61343408  0.80139328    -0.05800
H486        H  0.80953889  0.64089495  0.79298980     0.08000
H487        H  0.85884750  0.60596491  0.79901040     0.09200
Cu488      Cu  0.80052248  0.62762567  0.83665497     0.44200
Cu489      Cu  0.84285625  0.60135833  0.84383235     0.42000
Cu490      Cu  0.80514447  0.60211010  0.88037114     0.43900
N491        N  0.77869767  0.62467240  0.85585889    -0.34400
N492        N  0.77968872  0.61435690  0.87146833    -0.28700
C493        C  0.76245931  0.61421954  0.87980171    -0.04800
C494        C  0.75027886  0.62518185  0.86891818     0.07400
C495        C  0.76109127  0.63158077  0.85394031     0.01200
H496        H  0.75914658  0.60699494  0.89291559     0.08900
H497        H  0.75640766  0.64029017  0.84221623     0.07900
N498        N  0.83349664  0.59514925  0.88548494    -0.35900
N499        N  0.84691467  0.59504693  0.87235028    -0.28100
C500        C  0.86375003  0.59179693  0.88067916    -0.03300
C501        C  0.86089616  0.58983990  0.89995958     0.05300
C502        C  0.84153985  0.59183064  0.90249179     0.03400
H503        H  0.87713188  0.59125038  0.87322716     0.08500
H504        H  0.83397884  0.59173763  0.91582853     0.07300
N505        N  0.84993332  0.62785307  0.73900645    -0.27100
N506        N  0.84224898  0.64473957  0.74161636    -0.34900
C507        C  0.83661480  0.64629296  0.75971092     0.01300
C508        C  0.84118881  0.62971264  0.76905038     0.07300
C509        C  0.84970030  0.61829784  0.75556026    -0.05800
H510        H  0.82952788  0.65855358  0.76558851     0.08000
H511        H  0.85441013  0.60381595  0.75737279     0.09200
Cu512      Cu  0.83967957  0.66510339  0.72064675     0.44200
Cu513      Cu  0.85760699  0.61820095  0.71229630     0.42000
Cu514      Cu  0.85563121  0.65368335  0.67394643     0.43900
N515        N  0.84134741  0.68488416  0.69903661    -0.34400
N516        N  0.84836043  0.68116233  0.68207281    -0.28700
C517        C  0.84800911  0.69717561  0.67160883    -0.04800
C518        C  0.84009590  0.71146545  0.68250962     0.07400
C519        C  0.83597151  0.70313837  0.69973377     0.01200
H520        H  0.85226089  0.69810270  0.65690878     0.08900
H521        H  0.82944655  0.70983888  0.71188124     0.07900
N522        N  0.85778647  0.62446988  0.66978838    -0.35900
N523        N  0.85853924  0.61176656  0.68358209    -0.28100
C524        C  0.85834122  0.59427687  0.67597708    -0.03300
C525        C  0.85721911  0.59598768  0.65646618     0.05300
C526        C  0.85713378  0.61532595  0.65306922     0.03400
H527        H  0.85891761  0.58133367  0.68415143     0.08500
H528        H  0.85600247  0.62224350  0.63942906     0.07300
N529        N  0.69998209  0.62835890  0.88072078    -0.27100
N530        N  0.70228624  0.64383389  0.87043427    -0.34900
C531        C  0.72043631  0.64498905  0.86485258     0.01300
C532        C  0.73014552  0.62961227  0.87214625     0.07300
C533        C  0.71677190  0.61932678  0.88220072    -0.05800
H534        H  0.72619452  0.65635920  0.85632072     0.08000
H535        H  0.71895378  0.60606590  0.88958998     0.09200
Cu536      Cu  0.68098653  0.66344361  0.86575564     0.44200
Cu537      Cu  0.67345150  0.62045385  0.89073262     0.42000
Cu538      Cu  0.63590404  0.65693672  0.88876114     0.43900
N539        N  0.66064132  0.68446485  0.86774173    -0.34400
N540        N  0.64464757  0.68284540  0.87737617    -0.28700
C541        C  0.63573724  0.69979540  0.87735541    -0.04800
C542        C  0.64660634  0.71244316  0.86693532     0.07400
C543        C  0.66217643  0.70219458  0.86102278     0.01200
H544        H  0.62222299  0.70258116  0.88403892     0.08900
H545        H  0.67407009  0.70739416  0.85285617     0.07900
N546        N  0.63125578  0.62825220  0.89460036    -0.35900
N547        N  0.64479624  0.61527740  0.89522149    -0.28100
C548        C  0.63685899  0.59806657  0.89723309    -0.03300
C549        C  0.61737033  0.60017228  0.89817038     0.05300
C550        C  0.61435818  0.61952002  0.89627539     0.03400
H551        H  0.64473264  0.58494926  0.89663129     0.08500
H552        H  0.60080931  0.62664979  0.89541956     0.07300
N553        N  0.70190262  0.83210878  0.67445536    -0.27100
N554        N  0.70334173  0.82116140  0.68958748    -0.34900
C555        C  0.72066758  0.81336760  0.69014992     0.01300
C556        C  0.73085828  0.81982319  0.67476572     0.07300
C557        C  0.71859572  0.83178946  0.66507843    -0.05800
H558        H  0.72559656  0.80394750  0.70120524     0.08000
H559        H  0.72142794  0.83928488  0.65200344     0.09200
Cu560      Cu  0.68253573  0.81843684  0.70991982     0.44200
Cu561      Cu  0.67632910  0.84535887  0.66749341     0.42000
Cu562      Cu  0.64034141  0.84589084  0.70574983     0.43900
N563        N  0.66386169  0.82225030  0.73206557    -0.34400
N564        N  0.64887569  0.83345363  0.73123736    -0.28700
C565        C  0.64074528  0.83407703  0.74854813    -0.04800
C566        C  0.65106829  0.82246544  0.76061058     0.07400
C567        C  0.66552926  0.81518567  0.74964520     0.01200
H568        H  0.62803883  0.84195038  0.75196011     0.08900
H569        H  0.67670464  0.80571736  0.75419776     0.07900
N570        N  0.63493426  0.85279825  0.67743388    -0.35900
N571        N  0.64780761  0.85260100  0.66376718    -0.28100
C572        C  0.63910661  0.85580558  0.64707630    -0.03300
C573        C  0.61988806  0.85834502  0.65029172     0.05300
C574        C  0.61778854  0.85616266  0.66971019     0.03400
H575        H  0.64614247  0.85550696  0.63345862     0.08500
H576        H  0.60459682  0.85597518  0.67752489     0.07300
N577        N  0.20097987  0.61239694  0.17547391    -0.27100
N578        N  0.20209917  0.62364581  0.19040921    -0.34900
C579        C  0.21948718  0.63133218  0.19114097     0.01300
C580        C  0.22994166  0.62444454  0.17609274     0.07300
C581        C  0.21781259  0.61242436  0.16642629    -0.05800
H582        H  0.22428665  0.64091130  0.20210274     0.08000
H583        H  0.22086379  0.60457296  0.15362080     0.09200
Cu584      Cu  0.18069205  0.62690395  0.21023030     0.44200
Cu585      Cu  0.17594715  0.59890779  0.16783403     0.42000
Cu586      Cu  0.13866458  0.59953012  0.20410554     0.43900
N587        N  0.16024374  0.62394614  0.23108408    -0.34400
N588        N  0.14534818  0.61272135  0.22942657    -0.28700
C589        C  0.13544513  0.61302813  0.24574652    -0.04800
C590        C  0.14448077  0.62527677  0.25809197     0.07400
C591        C  0.16008425  0.63197531  0.24832849     0.01200
H592        H  0.12231911  0.60547973  0.24816722     0.08900
H593        H  0.17066160  0.64182740  0.25343995     0.07900
N594        N  0.13417107  0.59332484  0.17577338    -0.35900
N595        N  0.14760102  0.59276863  0.16268439    -0.28100
C596        C  0.13947366  0.59030991  0.14560566    -0.03300
C597        C  0.12005707  0.58964049  0.14808473     0.05300
C598        C  0.11719241  0.59141611  0.16735775     0.03400
H599        H  0.14705294  0.59013740  0.13228137     0.08500
H600        H  0.10371547  0.59209115  0.17464072     0.07300
N601        N  0.20017401  0.81754151  0.37817892    -0.27100
N602        N  0.20125092  0.80271720  0.36676998    -0.34900
C603        C  0.21890765  0.80152444  0.35974546     0.01300
C604        C  0.22958995  0.81609484  0.36729185     0.07300
C605        C  0.21731362  0.82598436  0.37898613    -0.05800
H606        H  0.22371878  0.79059862  0.35012806     0.08000
H607        H  0.22045796  0.83862370  0.38706844     0.09200
Cu608      Cu  0.17921148  0.78375713  0.36232906     0.44200
Cu609      Cu  0.17480259  0.82596061  0.39070731     0.42000
Cu610      Cu  0.13520880  0.79248223  0.38627827     0.43900
N611        N  0.15749262  0.76398462  0.36390473    -0.34400
N612        N  0.14171882  0.76662676  0.37366587    -0.28700
C613        C  0.13142711  0.75051596  0.37331103    -0.04800
C614        C  0.14114065  0.73727343  0.36257503     0.07400
C615        C  0.15751909  0.74632758  0.35677654     0.01200
H616        H  0.11779302  0.74869288  0.38008422     0.08900
H617        H  0.16889946  0.74033521  0.34842897     0.07900
N618        N  0.13245054  0.82036364  0.39555882    -0.35900
N619        N  0.14674490  0.83237277  0.39735270    -0.28100
C620        C  0.13988263  0.84945524  0.40236669    -0.03300
C621        C  0.12030490  0.84825399  0.40355822     0.05300
C622        C  0.11616269  0.82953340  0.39936392     0.03400
H623        H  0.14858736  0.86182589  0.40471746     0.08500
H624        H  0.10221809  0.82323800  0.39833997     0.07300
N625        N  0.34989934  0.81690509  0.23158981    -0.27100
N626        N  0.34027010  0.80099519  0.23384352    -0.34900
C627        C  0.33393093  0.79994411  0.25173087     0.01300
C628        C  0.34004820  0.81579477  0.26140736     0.07300
C629        C  0.35021819  0.82630175  0.24826194    -0.05800
H630        H  0.32546098  0.78843108  0.25729408     0.08000
H631        H  0.35658275  0.84008357  0.25040937     0.09200
Cu632      Cu  0.33655649  0.78089454  0.21288959     0.44200
Cu633      Cu  0.35974748  0.82524014  0.20497849     0.42000
Cu634      Cu  0.35571110  0.78916536  0.16690249     0.43900
N635        N  0.33813158  0.76011435  0.19233639    -0.34400
N636        N  0.34628024  0.76258098  0.17565817    -0.28700
C637        C  0.34613012  0.74594746  0.16622325    -0.04800
C638        C  0.33719611  0.73257707  0.17751906     0.07400
C639        C  0.33226099  0.74208424  0.19387988     0.01200
H640        H  0.35158340  0.74388899  0.15204562     0.08900
H641        H  0.32516938  0.73625238  0.20616384     0.07900
N642        N  0.36057796  0.81797808  0.16242204    -0.35900
N643        N  0.36235013  0.83077659  0.17602314    -0.28100
C644        C  0.36402887  0.84804191  0.16807412    -0.03300
C645        C  0.36289100  0.84616816  0.14853925     0.05300
C646        C  0.36098786  0.82684991  0.14553140     0.03400
H647        H  0.36584115  0.86093799  0.17609427     0.08500
H648        H  0.35925854  0.81981339  0.13202306     0.07300
N649        N  0.27949199  0.62816455  0.16159914    -0.27100
N650        N  0.27747768  0.64372040  0.17183903    -0.34900
C651        C  0.25961590  0.64473947  0.17829225     0.01300
C652        C  0.24977222  0.62917469  0.17170818     0.07300
C653        C  0.26275012  0.61894214  0.16109060    -0.05800
H654        H  0.25417489  0.65609679  0.18703381     0.08000
H655        H  0.26036675  0.60555285  0.15401905     0.09200
Cu656      Cu  0.29851821  0.66367501  0.17579440     0.44200
Cu657      Cu  0.30559835  0.62003603  0.15037654     0.42000
Cu658      Cu  0.34245663  0.65693667  0.15174573     0.43900
N659        N  0.31857519  0.68481049  0.17306503    -0.34400
N660        N  0.33424980  0.68299310  0.16298055    -0.28700
C661        C  0.34330685  0.69983506  0.16258548    -0.04800
C662        C  0.33286542  0.71264823  0.17319648     0.07400
C663        C  0.31737377  0.70260564  0.17967483     0.01200
H664        H  0.35669233  0.70241105  0.15556565     0.08900
H665        H  0.30582978  0.70794910  0.18823600     0.07900
N666        N  0.34756427  0.62837883  0.14603545    -0.35900
N667        N  0.33431485  0.61509701  0.14529080    -0.28100
C668        C  0.34273578  0.59806537  0.14327213    -0.03300
C669        C  0.36216333  0.60072156  0.14300580     0.05300
C670        C  0.36469789  0.62010145  0.14463806     0.03400
H671        H  0.33532505  0.58464229  0.14324446     0.08500
H672        H  0.37806273  0.62753503  0.14574327     0.07300
N673        N  0.28006970  0.82755566  0.36569959    -0.27100
N674        N  0.27735502  0.82049760  0.34857537    -0.34900
C675        C  0.25906740  0.81563620  0.34658291     0.01300
C676        C  0.24965508  0.82006619  0.36314780     0.07300
C677        C  0.26335080  0.82769908  0.37499901    -0.05800
H678        H  0.25305358  0.80938676  0.33394233     0.08000
H679        H  0.26145651  0.83230721  0.38949434     0.09200
Cu680      Cu  0.29840370  0.81846541  0.32834843     0.44200
Cu681      Cu  0.30709388  0.83480334  0.37530132     0.42000
Cu682      Cu  0.34471688  0.83675501  0.33864026     0.43900
N683        N  0.31945379  0.82116843  0.30819835    -0.34400
N684        N  0.33620308  0.82894559  0.31135737    -0.28700
C685        C  0.34610788  0.82903033  0.29496830    -0.04800
C686        C  0.33503699  0.82062007  0.28106972     0.07400
C687        C  0.31833271  0.81578634  0.29000803     0.01200
H688        H  0.36054962  0.83396812  0.29350270     0.08900
H689        H  0.30621595  0.80877201  0.28375489     0.07900
N690        N  0.34939560  0.83923200  0.36782454    -0.35900
N691        N  0.33596599  0.83822661  0.38091538    -0.28100
C692        C  0.34407210  0.83917086  0.39817470    -0.03300
C693        C  0.36351256  0.84072104  0.39592133     0.05300
C694        C  0.36632719  0.84096503  0.37649501     0.03400
H695        H  0.33637032  0.83872301  0.41142438     0.08500
H696        H  0.37977430  0.84195508  0.36919471     0.07300
N697        N  0.12722934  0.63093213  0.30648375    -0.27100
N698        N  0.13544059  0.64750673  0.30352095    -0.34900
C699        C  0.14260588  0.64795986  0.28591744     0.01300
C700        C  0.13854771  0.63094239  0.27721646     0.07300
C701        C  0.12869335  0.62044208  0.29057829    -0.05800
H702        H  0.15018341  0.65985749  0.27989542     0.08000
H703        H  0.12362332  0.60604747  0.28910259     0.09200
Cu704      Cu  0.13640916  0.66902914  0.32321915     0.44200
Cu705      Cu  0.11640179  0.62336530  0.33290706     0.42000
Cu706      Cu  0.11603623  0.66136411  0.36901417     0.43900
N707        N  0.13398378  0.69014840  0.34323217    -0.34400
N708        N  0.12563495  0.68791771  0.35985074    -0.28700
C709        C  0.12618196  0.70459675  0.36921607    -0.04800
C710        C  0.13559934  0.71769509  0.35795367     0.07400
C711        C  0.14035425  0.70800553  0.34166492     0.01200
H712        H  0.12093954  0.70678382  0.38345332     0.08900
H713        H  0.14800481  0.71349506  0.32955952     0.07900
N714        N  0.11099309  0.63263163  0.37464164    -0.35900
N715        N  0.11093367  0.61908428  0.36164509    -0.28100
C716        C  0.10871338  0.60219217  0.37028234    -0.03300
C717        C  0.10761747  0.60512373  0.38963773     0.05300
C718        C  0.10887120  0.62461412  0.39185324     0.03400
H719        H  0.10882674  0.58866453  0.36307117     0.08500
H720        H  0.10891300  0.63234537  0.40508818     0.07300
N721        N  0.63846176  0.81984892  0.23710924    -0.27100
N722        N  0.64488018  0.80273926  0.24121335    -0.34900
C723        C  0.64936869  0.80197435  0.25968092     0.01300
C724        C  0.64528307  0.81934188  0.26769276     0.07300
C725        C  0.63833573  0.83038651  0.25303879    -0.05800
H726        H  0.65521557  0.78967628  0.26674314     0.08000
H727        H  0.63434015  0.84517531  0.25371226     0.09200
Cu728      Cu  0.64679840  0.78107623  0.22166171     0.44200
Cu729      Cu  0.63222116  0.82788908  0.20946893     0.42000
Cu730      Cu  0.63222277  0.78985725  0.17357707     0.43900
N731        N  0.64453873  0.76009103  0.20141994    -0.34400
N732        N  0.63824032  0.76282903  0.18398759    -0.28700
C733        C  0.63803974  0.74602997  0.17484402    -0.04800
C734        C  0.64482046  0.73227903  0.18713630     0.07400
C735        C  0.64883957  0.74171684  0.20376397     0.01200
H736        H  0.63409638  0.74412768  0.16015360     0.08900
H737        H  0.65455241  0.73568228  0.21665440     0.07900
N738        N  0.62981624  0.81872520  0.16747967    -0.35900
N739        N  0.62978058  0.83230089  0.18042510    -0.28100
C740        C  0.62885186  0.84922231  0.17168032    -0.03300
C741        C  0.62802871  0.84626672  0.15231238     0.05300
C742        C  0.62892652  0.82674648  0.15017518     0.03400
H743        H  0.62901240  0.86274159  0.17890658     0.08500
H744        H  0.62938867  0.81895463  0.13698358     0.07300
N745        N  0.77984652  0.82335864  0.38814532    -0.27100
N746        N  0.77728245  0.80767090  0.37822089    -0.34900
C747        C  0.75948759  0.80726482  0.37159770     0.01300
C748        C  0.75021063  0.82333552  0.37773255     0.07300
C749        C  0.76346833  0.83327307  0.38828641    -0.05800
H750        H  0.75371921  0.79600943  0.36293475     0.08000
H751        H  0.76158433  0.84696105  0.39492515     0.09200
Cu752      Cu  0.79734234  0.78671006  0.37436911     0.44200
Cu753      Cu  0.80623886  0.83070521  0.39929519     0.42000
Cu754      Cu  0.84207033  0.79284129  0.39617956     0.43900
N755        N  0.81699879  0.76511456  0.37626875    -0.34400
N756        N  0.83320454  0.76692086  0.38545188    -0.28700
C757        C  0.84221232  0.75008183  0.38550760    -0.04800
C758        C  0.83117880  0.73723106  0.37561172     0.07400
C759        C  0.81535920  0.74725230  0.36989413     0.01200
H760        H  0.85594955  0.74752736  0.39182165     0.08900
H761        H  0.80337344  0.74188168  0.36198411     0.07900
N762        N  0.84788568  0.82079733  0.40338184    -0.35900
N763        N  0.83506075  0.83438379  0.40493662    -0.28100
C764        C  0.84400588  0.85082633  0.40864351    -0.03300
C765        C  0.86340223  0.84750739  0.40950143     0.05300
C766        C  0.86523307  0.82828299  0.40584021     0.03400
H767        H  0.83693744  0.86437593  0.40990479     0.08500
H768        H  0.87816283  0.82039609  0.40372194     0.07300
N769        N  0.78196530  0.61633856  0.18454081    -0.27100
N770        N  0.78023748  0.62622301  0.20034400    -0.34900
C771        C  0.76232566  0.63241168  0.20199147     0.01300
C772        C  0.75209689  0.62595954  0.18661064     0.07300
C773        C  0.76495570  0.61575383  0.17578715    -0.05800
H774        H  0.75705370  0.64070086  0.21376035     0.08000
H775        H  0.76224232  0.60874456  0.16243047     0.09200
Cu776      Cu  0.80177916  0.62962625  0.21984943     0.44200
Cu777      Cu  0.80806041  0.60521791  0.17607999     0.42000
Cu778      Cu  0.84588420  0.60559523  0.21266609     0.43900
N779        N  0.82253484  0.62772778  0.24037979    -0.34400
N780        N  0.83844163  0.61802515  0.23844828    -0.28700
C781        C  0.84807428  0.61867470  0.25497484    -0.04800
C782        C  0.83769889  0.62950298  0.26768428     0.07400
C783        C  0.82167935  0.63500416  0.25790884     0.01200
H784        H  0.86170926  0.61210055  0.25742568     0.08900
H785        H  0.81000810  0.64338573  0.26326147     0.07900
N786        N  0.84997321  0.59866644  0.18417865    -0.35900
N787        N  0.83653704  0.59875734  0.17106217    -0.28100
C788        C  0.84457444  0.59583018  0.15399151    -0.03300
C789        C  0.86399018  0.59410762  0.15635928     0.05300
C790        C  0.86681253  0.59558882  0.17574325     0.03400
H791        H  0.83694819  0.59593349  0.14069240     0.08500
H792        H  0.88025260  0.59527807  0.18311939     0.07300
N793        N  0.70205950  0.62794247  0.17311884    -0.27100
N794        N  0.70359885  0.64316786  0.18391856    -0.34900
C795        C  0.72148399  0.64462151  0.19023319     0.01300
C796        C  0.73188599  0.62974845  0.18291200     0.07300
C797        C  0.71916540  0.61942133  0.17205290    -0.05800
H798        H  0.72663327  0.65596363  0.19916831     0.08000
H799        H  0.72203096  0.60651938  0.16428893     0.09200
Cu800      Cu  0.68208774  0.66263974  0.18798481     0.44200
Cu801      Cu  0.67610780  0.61967053  0.16150851     0.42000
Cu802      Cu  0.63934534  0.65668924  0.16154460     0.43900
N803        N  0.66245362  0.68405263  0.18421805    -0.34400
N804        N  0.64740778  0.68254767  0.17317031    -0.28700
C805        C  0.63878635  0.69958640  0.17210109    -0.04800
C806        C  0.64881939  0.71220038  0.18330227     0.07400
C807        C  0.66363128  0.70185097  0.19080696     0.01200
H808        H  0.62597018  0.70244055  0.16418328     0.08900
H809        H  0.67477720  0.70701106  0.19998360     0.07900
N810        N  0.63432705  0.62824959  0.15547054    -0.35900
N811        N  0.64752649  0.61491626  0.15528027    -0.28100
C812        C  0.63915053  0.59803692  0.15220143    -0.03300
C813        C  0.61978140  0.60081895  0.15020139     0.05300
C814        C  0.61728611  0.62015612  0.15263934     0.03400
H815        H  0.64655751  0.58461137  0.15201853     0.08500
H816        H  0.60395447  0.62771674  0.15314700     0.07300
N817        N  0.85183351  0.63393754  0.31727341    -0.27100
N818        N  0.84112775  0.64915936  0.31508633    -0.34900
C819        C  0.83493466  0.64994415  0.29713526     0.01300
C820        C  0.84219885  0.63460671  0.28739837     0.07300
C821        C  0.85294635  0.62472562  0.30055002    -0.05800
H822        H  0.82573140  0.66089338  0.29159854     0.08000
H823        H  0.86027930  0.61143802  0.29836425     0.09200
Cu824      Cu  0.83574246  0.66879482  0.33616626     0.44200
Cu825      Cu  0.86208494  0.62590328  0.34373595     0.42000
Cu826      Cu  0.85801948  0.66223106  0.38096448     0.43900
N827        N  0.83681557  0.68972718  0.35663280    -0.34400
N828        N  0.84633163  0.68793252  0.37265756    -0.28700
C829        C  0.84595909  0.70459766  0.38196819    -0.04800
C830        C  0.83544754  0.71730667  0.37132897     0.07400
C831        C  0.82980185  0.70738739  0.35543904     0.01200
H832        H  0.85254483  0.70716069  0.39557134     0.08900
H833        H  0.82171159  0.71277861  0.34357885     0.07900
N834        N  0.86309776  0.63366197  0.38600531    -0.35900
N835        N  0.86467735  0.62059490  0.37264885    -0.28100
C836        C  0.86514862  0.60338819  0.38087671    -0.03300
C837        C  0.86387395  0.60569138  0.40032722     0.05300
C838        C  0.86247977  0.62507046  0.40301089     0.03400
H839        H  0.86472075  0.59017964  0.37313365     0.08500
H840        H  0.86004234  0.63232791  0.41629063     0.07300
N841        N  0.70131098  0.83961333  0.37268042    -0.27100
N842        N  0.70359795  0.82952477  0.35708369    -0.34900
C843        C  0.72126916  0.82260149  0.35658557     0.01300
C844        C  0.73076406  0.82872639  0.37252868     0.07300
C845        C  0.71775024  0.83958392  0.38248496    -0.05800
H846        H  0.72679787  0.81373509  0.34536853     0.08000
H847        H  0.71981946  0.84626871  0.39612093     0.09200
Cu848      Cu  0.68307004  0.82586186  0.33663753     0.44200
Cu849      Cu  0.67491424  0.85063589  0.37985785     0.42000
Cu850      Cu  0.63873021  0.84918135  0.34153327     0.43900
N851        N  0.66345483  0.82730272  0.31505262    -0.34400
N852        N  0.64755120  0.83712546  0.31612791    -0.28700
C853        C  0.63861004  0.83623905  0.29925887    -0.04800
C854        C  0.64939188  0.82505552  0.28725569     0.07400
C855        C  0.66494764  0.81958631  0.29774813     0.01200
H856        H  0.62502778  0.84266126  0.29618892     0.08900
H857        H  0.67666659  0.81087461  0.29306408     0.07900
N858        N  0.63298769  0.85372292  0.37011667    -0.35900
N859        N  0.64586842  0.85419672  0.38375717    -0.28100
C860        C  0.63696845  0.85500702  0.40059326    -0.03300
C861        C  0.61759455  0.85474094  0.39751357     0.05300
C862        C  0.61562107  0.85424099  0.37798442     0.03400
H863        H  0.64408999  0.85478572  0.41416972     0.08500
H864        H  0.60259669  0.85397026  0.36995362     0.07300
N865        N  0.83657684  0.33397682  0.22679835    -0.27100
N866        N  0.82302078  0.32107062  0.22604197    -0.34900
C867        C  0.82079397  0.31321329  0.24322590     0.01300
C868        C  0.83328956  0.32178304  0.25557584     0.07300
C869        C  0.84309856  0.33494644  0.24475294    -0.05800
H870        H  0.81022002  0.30265033  0.24666646     0.08000
H871        H  0.85421652  0.34436388  0.24951918     0.09200
Cu872      Cu  0.80565364  0.31716153  0.20284805     0.44200
Cu873      Cu  0.84527521  0.34871921  0.20264193     0.42000
Cu874      Cu  0.81081049  0.34796525  0.16326744     0.43900
N875        N  0.78425525  0.32206323  0.18351052    -0.34400
N876        N  0.78540358  0.33442444  0.16949448    -0.28700
C877        C  0.76825565  0.33589145  0.16112013    -0.04800
C878        C  0.75590011  0.32370004  0.17034762     0.07400
C879        C  0.76657462  0.31518312  0.18437603     0.01200
H880        H  0.76507041  0.34503590  0.14922909     0.08900
H881        H  0.76169435  0.30517956  0.19492663     0.07900
N882        N  0.83899926  0.35621289  0.16069710    -0.35900
N883        N  0.85134779  0.35679610  0.17479418    -0.28100
C884        C  0.86846541  0.36152446  0.16778415    -0.03300
C885        C  0.86695654  0.36371312  0.14826938     0.05300
C886        C  0.84797910  0.36041153  0.14442885     0.03400
H887        H  0.88097391  0.36309284  0.17641600     0.08500
H888        H  0.84129684  0.36030625  0.13063408     0.07300
N889        N  0.83478373  0.18485937  0.37547464    -0.27100
N890        N  0.81762617  0.18742524  0.36839143    -0.34900
C891        C  0.81581230  0.20544254  0.36253713     0.01300
C892        C  0.83245744  0.21490684  0.36642416     0.07300
C893        C  0.84426073  0.20148900  0.37465408    -0.05800
H894        H  0.80318787  0.21128580  0.35608013     0.08000
H895        H  0.85880149  0.20349178  0.37907981     0.09200
Cu896      Cu  0.79679950  0.16686282  0.36804994     0.44200
Cu897      Cu  0.84407041  0.15803118  0.38426527     0.42000
Cu898      Cu  0.80639993  0.12133204  0.38786463     0.43900
N899        N  0.77598939  0.14678635  0.37264188    -0.34400
N900        N  0.77898210  0.13018052  0.38078047    -0.28700
C901        C  0.76229726  0.12081396  0.38190268    -0.04800
C902        C  0.74833145  0.13211768  0.37385773     0.07400
C903        C  0.75758952  0.14839186  0.36815311     0.01200
H904        H  0.76062663  0.10656125  0.38730881     0.08900
H905        H  0.75142855  0.16050197  0.36103507     0.07900
N906        N  0.83552997  0.11604417  0.39021487    -0.35900
N907        N  0.84899935  0.12906614  0.38892237    -0.28100
C908        C  0.86601443  0.12040942  0.38998954    -0.03300
C909        C  0.86323824  0.10101111  0.39177321     0.05300
C910        C  0.84368576  0.09887935  0.39213289     0.03400
H911        H  0.87948825  0.12765667  0.38897723     0.08500
H912        H  0.83581905  0.08586135  0.39381815     0.07300
N913        N  0.63923466  0.18794132  0.17894283    -0.27100
N914        N  0.64734493  0.19099270  0.19555822    -0.34900
C915        C  0.65275595  0.20923192  0.19660086     0.01300
C916        C  0.64750364  0.21823656  0.18001361     0.07300
C917        C  0.63890423  0.20435599  0.16911793    -0.05800
H918        H  0.65991075  0.21551062  0.20861781     0.08000
H919        H  0.63356207  0.20587787  0.15482856     0.09200
Cu920      Cu  0.64985126  0.17051327  0.21654764     0.44200
Cu921      Cu  0.63105116  0.16091867  0.17011775     0.42000
Cu922      Cu  0.63302109  0.12348883  0.20625026     0.43900
N923        N  0.64673897  0.14959822  0.23702137    -0.34400
N924        N  0.63952862  0.13263062  0.23364594    -0.28700
C925        C  0.63834951  0.12302093  0.25015968    -0.04800
C926        C  0.64543239  0.13445991  0.26446833     0.07400
C927        C  0.65068361  0.15111871  0.25558750     0.01200
H928        H  0.63334127  0.10859397  0.25153883     0.08900
H929        H  0.65679210  0.16353963  0.26217987     0.07900
N930        N  0.62929620  0.11849659  0.17728417    -0.35900
N931        N  0.62814144  0.13202999  0.16432757    -0.28100
C932        C  0.62640214  0.12397751  0.14710510    -0.03300
C933        C  0.62641755  0.10444723  0.14925311     0.05300
C934        C  0.62847469  0.10152454  0.16856613     0.03400
H935        H  0.62607153  0.13179749  0.13392833     0.08500
H936        H  0.62955677  0.08800815  0.17573257     0.07300
N937        N  0.65015169  0.26727270  0.16337977    -0.27100
N938        N  0.66643464  0.26553887  0.17243450    -0.34900
C939        C  0.66781065  0.24800984  0.17973268     0.01300
C940        C  0.65173505  0.23801179  0.17479742     0.07300
C941        C  0.64080448  0.25060184  0.16435050    -0.05800
H942        H  0.67985602  0.24278646  0.18765961     0.08000
H943        H  0.62695445  0.24798214  0.15832233     0.09200
Cu944      Cu  0.68663650  0.28662002  0.17283817     0.44200
Cu945      Cu  0.64204853  0.29319447  0.15156561     0.42000
Cu946      Cu  0.67873742  0.33102414  0.14862690     0.43900
N947        N  0.70758742  0.30635846  0.16792157    -0.34400
N948        N  0.70539840  0.32234818  0.15838764    -0.28700
C949        C  0.72239473  0.33113652  0.15727809    -0.04800
C950        C  0.73566286  0.32007871  0.16673475     0.07400
C951        C  0.72571671  0.30457932  0.17325380     0.01200
H952        H  0.72480722  0.34469876  0.15053745     0.08900
H953        H  0.73125997  0.29271004  0.18122983     0.07900
N954        N  0.64973390  0.33511753  0.14359969    -0.35900
N955        N  0.63679763  0.32153911  0.14465548    -0.28100
C956        C  0.61950894  0.32929842  0.14249617    -0.03300
C957        C  0.62146540  0.34864511  0.13978445     0.05300
C958        C  0.64086710  0.35182224  0.14070718     0.03400
H959        H  0.60635098  0.32151588  0.14368352     0.08500
H960        H  0.64793419  0.36542846  0.14041416     0.07300
N961        N  0.64536117  0.11856858  0.31388242    -0.27100
N962        N  0.66071633  0.12926652  0.31337608    -0.34900
C963        C  0.66283336  0.13650576  0.29591153     0.01300
C964        C  0.64829558  0.12984767  0.28465076     0.07300
C965        C  0.63744024  0.11842053  0.29644971    -0.05800
H966        H  0.67444787  0.14554106  0.29158901     0.08000
H967        H  0.62458866  0.11092402  0.29275003     0.09200
Cu968      Cu  0.67937077  0.13179417  0.33575551     0.44200
Cu969      Cu  0.63639371  0.10614997  0.33925277     0.42000
Cu970      Cu  0.67272630  0.10441321  0.37769628     0.43900
N971        N  0.70036869  0.12784216  0.35572735    -0.34400
N972        N  0.69880421  0.11667253  0.37068183    -0.28700
C973        C  0.71574887  0.11604379  0.37963351    -0.04800
C974        C  0.72831695  0.12761492  0.36982396     0.07400
C975        C  0.71800547  0.13484035  0.35486418     0.01200
H976        H  0.71857950  0.10814864  0.39247161     0.08900
H977        H  0.72308355  0.14419333  0.34381956     0.07900
N978        N  0.64378335  0.09884854  0.38126679    -0.35900
N979        N  0.63086237  0.09960774  0.36765410    -0.28100
C980        C  0.61355655  0.09750758  0.37546130    -0.03300
C981        C  0.61556757  0.09508857  0.39486336     0.05300
C982        C  0.63494301  0.09618791  0.39797699     0.03400
H983        H  0.60038780  0.09875307  0.36770474     0.08500
H984        H  0.64205224  0.09594052  0.41155783     0.07300
N985        N  0.84008640  0.26591227  0.36310284    -0.27100
N986        N  0.83585282  0.26167310  0.34534951    -0.34900
C987        C  0.83341554  0.24285484  0.34381157     0.01300
C988        C  0.83661282  0.23470104  0.36130789     0.07300
C989        C  0.84076673  0.24971051  0.37328781    -0.05800
H990        H  0.82912796  0.23566689  0.33096832     0.08000
H991        H  0.84293389  0.24902455  0.38844846     0.09200
Cu992      Cu  0.83313679  0.28147111  0.32382576     0.44200
Cu993      Cu  0.84238324  0.29395767  0.37241586     0.42000
Cu994      Cu  0.84182496  0.33021148  0.33462243     0.43900
N995        N  0.83428497  0.30247224  0.30333376    -0.34400
N996        N  0.83847246  0.32035174  0.30702565    -0.28700
C997        C  0.83923442  0.33006407  0.29057090    -0.04800
C998        C  0.83508994  0.31765712  0.27594062     0.07400
C999        C  0.83191932  0.30036039  0.28456497     0.01200
H1000       H  0.84205586  0.34509135  0.28940103     0.08900
H1001       H  0.82839545  0.28712542  0.27767547     0.07900
N1002       N  0.84233374  0.33615608  0.36352815    -0.35900
N1003       N  0.84231207  0.32323875  0.37713303    -0.28100
C1004       C  0.84216280  0.33214872  0.39400761    -0.03300
C1005       C  0.84195286  0.35160378  0.39097543     0.05300
C1006       C  0.84231341  0.35351906  0.37141082     0.03400
H1007       H  0.84209434  0.32496778  0.40755700     0.08500
H1008       H  0.84308467  0.36646984  0.36331096     0.07300
N1009       N  0.14057523  0.33431807  0.22953894    -0.27100
N1010       N  0.15666132  0.32492521  0.23163733    -0.34900
C1011       C  0.15729215  0.31727677  0.24903992     0.01300
C1012       C  0.14098013  0.32227825  0.25856715     0.07300
C1013       C  0.13066168  0.33317168  0.24586575    -0.05800
H1014       H  0.16900571  0.30901707  0.25450131     0.08000
H1015       H  0.11684166  0.33940364  0.24816229     0.09200
Cu1016     Cu  0.17798034  0.32393627  0.21162037     0.44200
Cu1017     Cu  0.13304775  0.34706318  0.20385904     0.42000
Cu1018     Cu  0.17189304  0.35028930  0.16903401     0.43900
N1019       N  0.19951090  0.32798497  0.19221782    -0.34400
N1020       N  0.19774262  0.33859610  0.17689112    -0.28700
C1021       C  0.21446752  0.33897596  0.16766349    -0.04800
C1022       C  0.22719628  0.32785105  0.17764236     0.07400
C1023       C  0.21722532  0.32109670  0.19307362     0.01200
H1024       H  0.21696937  0.34623974  0.15439191     0.08900
H1025       H  0.22247034  0.31190983  0.20417987     0.07900
N1026       N  0.14370317  0.35655888  0.16321536    -0.35900
N1027       N  0.12965391  0.35547269  0.17562240    -0.28100
C1028       C  0.11318092  0.35883306  0.16653837    -0.03300
C1029       C  0.11705571  0.36191056  0.14754852     0.05300
C1030       C  0.13653293  0.36053366  0.14600459     0.03400
H1031       H  0.09932792  0.35810664  0.17306832     0.08500
H1032       H  0.14481810  0.36151401  0.13314065     0.07300
N1033       N  0.34339164  0.18892482  0.17129555    -0.27100
N1034       N  0.33403391  0.19101893  0.18738517    -0.34900
C1035       C  0.32772449  0.20891590  0.18866595     0.01300
C1036       C  0.33357245  0.21870544  0.17275760     0.07300
C1037       C  0.34354973  0.20565168  0.16200959    -0.05800
H1038       H  0.31968552  0.21446524  0.20048212     0.08000
H1039       H  0.34995354  0.20797754  0.14827459     0.09200
Cu1040     Cu  0.33138375  0.17004206  0.20771908     0.44200
Cu1041     Cu  0.35406082  0.16276212  0.16283241     0.42000
Cu1042     Cu  0.35570567  0.12619098  0.20003962     0.43900
N1043       N  0.33512164  0.14984777  0.22866952    -0.34400
N1044       N  0.34515411  0.13419724  0.22636778    -0.28700
C1045       C  0.34615701  0.12496286  0.24307884    -0.04800
C1046       C  0.33605177  0.13526821  0.25637978     0.07400
C1047       C  0.32920393  0.15087556  0.24672263     0.01200
H1048       H  0.35333097  0.11158756  0.24526859     0.08900
H1049       H  0.32085821  0.16237468  0.25248655     0.07900
N1050       N  0.36067016  0.12112375  0.17141376    -0.35900
N1051       N  0.35999452  0.13424637  0.15802302    -0.28100
C1052       C  0.36191057  0.12583009  0.14102185    -0.03300
C1053       C  0.36408080  0.10649843  0.14378292     0.05300
C1054       C  0.36305886  0.10406790  0.16323527     0.03400
H1055       H  0.36050245  0.13317068  0.12765516     0.08500
H1056       H  0.36332018  0.09076267  0.17085671     0.07300
N1057       N  0.14611340  0.18429833  0.37887046    -0.27100
N1058       N  0.16183297  0.18697833  0.36903586    -0.34900
C1059       C  0.16193598  0.20466223  0.36201917     0.01300
C1060       C  0.14567409  0.21376239  0.36794498     0.07300
C1061       C  0.13592077  0.20049972  0.37868713    -0.05800
H1062       H  0.17318069  0.21054799  0.35341109     0.08000
H1063       H  0.12219130  0.20227008  0.38527754     0.09200
Cu1064     Cu  0.18313881  0.16704640  0.36637969     0.44200
Cu1065     Cu  0.13923554  0.15784151  0.39019271     0.42000
Cu1066     Cu  0.17717919  0.12170574  0.38801652     0.43900
N1067       N  0.20478357  0.14743093  0.36865864    -0.34400
N1068       N  0.20308260  0.13101190  0.37751179    -0.28700
C1069       C  0.21995236  0.12202357  0.37717842    -0.04800
C1070       C  0.23269505  0.13332529  0.36740888     0.07400
C1071       C  0.22258055  0.14925404  0.36219798     0.01200
H1072       H  0.22255440  0.10807958  0.38300957     0.08900
H1073       H  0.22778804  0.16135639  0.35434639     0.07900
N1074       N  0.14898260  0.11603842  0.39451632    -0.35900
N1075       N  0.13544448  0.12898599  0.39562525    -0.28100
C1076       C  0.11882129  0.12021161  0.39888907    -0.03300
C1077       C  0.12197749  0.10084162  0.40000914     0.05300
C1078       C  0.14125938  0.09876170  0.39691132     0.03400
H1079       H  0.10528725  0.12737286  0.39972238     0.08500
H1080       H  0.14900900  0.08559069  0.39563246     0.07300
N1081       N  0.33535049  0.12020947  0.30596130    -0.27100
N1082       N  0.31958199  0.13027738  0.30487292    -0.34900
C1083       C  0.31758381  0.13703649  0.28720900     0.01300
C1084       C  0.33267668  0.13078862  0.27647276     0.07300
C1085       C  0.34370105  0.12008334  0.28874695    -0.05800
H1086       H  0.30576881  0.14558077  0.28245070     0.08000
H1087       H  0.35696431  0.11310083  0.28552061     0.09200
Cu1088     Cu  0.30035494  0.13314513  0.32669676     0.44200
Cu1089     Cu  0.34459471  0.10832796  0.33151099     0.42000
Cu1090     Cu  0.30820893  0.10676566  0.36902515     0.43900
N1091       N  0.27981456  0.12945085  0.34715806    -0.34400
N1092       N  0.28202991  0.11858732  0.36225100    -0.28700
C1093       C  0.26550657  0.11794726  0.37185180    -0.04800
C1094       C  0.25248693  0.12919622  0.36236306     0.07400
C1095       C  0.26206915  0.13627852  0.34685048     0.01200
H1096       H  0.26328564  0.11028122  0.38494616     0.08900
H1097       H  0.25644709  0.14541609  0.33588808     0.07900
N1098       N  0.33691598  0.10129493  0.37333033    -0.35900
N1099       N  0.35004771  0.10181393  0.35994820    -0.28100
C1100       C  0.36718153  0.09941573  0.36805931    -0.03300
C1101       C  0.36482138  0.09762716  0.38754409     0.05300
C1102       C  0.34538053  0.09863548  0.39020863     0.03400
H1103       H  0.38030708  0.09921765  0.36021734     0.08500
H1104       H  0.33796319  0.09840775  0.40362421     0.07300
N1105       N  0.13094805  0.26322843  0.36416114    -0.27100
N1106       N  0.13802859  0.26019909  0.34708137    -0.34900
C1107       C  0.14388725  0.24213410  0.34585113     0.01300
C1108       C  0.14005311  0.23318998  0.36283019     0.07300
C1109       C  0.13177374  0.24692811  0.37416053    -0.05800
H1110       H  0.15054335  0.23597339  0.33349014     0.08000
H1111       H  0.12752717  0.24543816  0.38881637     0.09200
Cu1112     Cu  0.13912668  0.28045731  0.32584884     0.44200
Cu1113     Cu  0.12247755  0.29014100  0.37300288     0.42000
Cu1114     Cu  0.11882507  0.32593733  0.33504133     0.43900
N1115       N  0.13580926  0.30106252  0.30518544    -0.34400
N1116       N  0.12725229  0.31745943  0.30814009    -0.28700
C1117       C  0.12698137  0.32736863  0.29179233    -0.04800
C1118       C  0.13608087  0.31672356  0.27805236     0.07400
C1119       C  0.14154404  0.30020909  0.28706129     0.01200
H1120       H  0.12149115  0.34160780  0.29028647     0.08900
H1121       H  0.14926952  0.28847115  0.28092758     0.07900
N1122       N  0.11573992  0.33167103  0.36377240    -0.35900
N1123       N  0.11721928  0.31891968  0.37746579    -0.28100
C1124       C  0.11543574  0.32774843  0.39428753    -0.03300
C1125       C  0.11240312  0.34689850  0.39104051     0.05300
C1126       C  0.11295801  0.34885601  0.37154241     0.03400
H1127       H  0.11662283  0.32078987  0.40790180     0.08500
H1128       H  0.11161766  0.36188628  0.36356408     0.07300
N1129       N  0.33038626  0.26835737  0.15834297    -0.27100
N1130       N  0.31483326  0.26642290  0.16860812    -0.34900
C1131       C  0.31369361  0.24856540  0.17503307     0.01300
C1132       C  0.32912513  0.23859719  0.16835040     0.07300
C1133       C  0.33945403  0.25151661  0.15772656    -0.05800
H1134       H  0.30232342  0.24319478  0.18381096     0.08000
H1135       H  0.35283094  0.24904342  0.15065598     0.09200
Cu1136     Cu  0.29502707  0.28754509  0.17274165     0.44200
Cu1137     Cu  0.33870139  0.29460242  0.14753634     0.42000
Cu1138     Cu  0.30205635  0.33192627  0.14986974     0.43900
N1139       N  0.27420555  0.30801616  0.17105580    -0.34400
N1140       N  0.27617238  0.32401340  0.16152056    -0.28700
C1141       C  0.25964793  0.33360069  0.16206937    -0.04800
C1142       C  0.24687359  0.32313455  0.17269736     0.07400
C1143       C  0.25659889  0.30706533  0.17818750     0.01200
H1144       H  0.25727587  0.34732802  0.15565501     0.08900
H1145       H  0.25118725  0.29535410  0.18648206     0.07900
N1146       N  0.33064308  0.33680203  0.14448656    -0.35900
N1147       N  0.34381764  0.32346408  0.14345736    -0.28100
C1148       C  0.36092500  0.33181844  0.14196514    -0.03300
C1149       C  0.35842266  0.35126752  0.14236536     0.05300
C1150       C  0.33905509  0.35390250  0.14379728     0.03400
H1151       H  0.37429111  0.32430471  0.14183823     0.08500
H1152       H  0.33163485  0.36726202  0.14499841     0.07300
O1153       O  0.47042415  0.45388184  0.16075323    -0.72700
O1154       O  0.51100218  0.49384697  0.16096124    -0.73700
O1155       O  0.47043602  0.49415849  0.16036528    -0.62300
O1156       O  0.51081555  0.45341245  0.16092777    -0.70700
O1157       O  0.51012633  0.45278022  0.12950381    -0.70300
O1158       O  0.47169144  0.49488198  0.12893455    -0.61500
O1159       O  0.51210340  0.49317832  0.12955573    -0.74000
O1160       O  0.46975549  0.45466103  0.12930310    -0.72800
Cu1161     Cu  0.49067853  0.47386200  0.16185286     1.04600
Cu1162     Cu  0.49095421  0.47388804  0.12823463     1.04300
C1163       C  0.46360488  0.44807578  0.14503221     0.93500
C1164       C  0.51823099  0.49957250  0.14537402     0.92600
C1165       C  0.46462068  0.50077646  0.14450634     0.84800
C1166       C  0.51653320  0.44641750  0.14520633     0.91000
O1167       O  0.09032225  0.45583405  0.49610352    -0.72700
O1168       O  0.08849082  0.49482521  0.53804021    -0.73700
O1169       O  0.08758541  0.49622331  0.49754565    -0.62300
O1170       O  0.09133168  0.45417084  0.53635354    -0.70700
O1171       O  0.12262577  0.45677762  0.53632331    -0.70300
O1172       O  0.11895368  0.49787217  0.49681452    -0.61500
O1173       O  0.11979858  0.49711983  0.53717497    -0.74000
O1174       O  0.12168692  0.45757966  0.49620932    -0.72800
Cu1175     Cu  0.08832298  0.47520866  0.51706320     1.04600
Cu1176     Cu  0.12182068  0.47743950  0.51661234     1.04300
C1177       C  0.10639480  0.45029356  0.48982310     0.93500
C1178       C  0.10386200  0.50241115  0.54397598     0.92600
C1179       C  0.10278050  0.50366271  0.49102629     0.84800
C1180       C  0.10756450  0.44864881  0.54226344     0.91000
O1181       O  0.50568995  0.11194864  0.50095899    -0.72700
O1182       O  0.46654482  0.11033660  0.54256847    -0.73700
O1183       O  0.50679996  0.11219873  0.54113337    -0.62300
O1184       O  0.46519143  0.11028814  0.50205590    -0.70700
O1185       O  0.46663342  0.07891182  0.50186537    -0.70300
O1186       O  0.50775763  0.08077815  0.54190812    -0.61500
O1187       O  0.46739398  0.07889567  0.54238212    -0.74000
O1188       O  0.50719071  0.08054904  0.50159504    -0.72800
Cu1189     Cu  0.48594727  0.11227008  0.52164605     1.04600
Cu1190     Cu  0.48724566  0.07868734  0.52190069     1.04300
C1191       C  0.51307378  0.09644294  0.49517946     0.93500
C1192       C  0.46106956  0.09439700  0.54926573     0.92600
C1193       C  0.51396498  0.09685167  0.54757136     0.84800
C1194       C  0.45926148  0.09435006  0.49580059     0.91000
O1195       O  0.86100529  0.45311475  0.54128022    -0.72700
O1196       O  0.86228701  0.49607320  0.50400203    -0.73700
O1197       O  0.86299901  0.49325248  0.54398925    -0.62300
O1198       O  0.86045854  0.45572358  0.50131819    -0.70700
O1199       O  0.82905544  0.45659992  0.50232672    -0.70300
O1200       O  0.83162224  0.49548238  0.54404720    -0.61500
O1201       O  0.83081729  0.49697489  0.50380993    -0.74000
O1202       O  0.82961679  0.45525981  0.54264104    -0.72800
Cu1203     Cu  0.86277270  0.47449745  0.52259666     1.04600
Cu1204     Cu  0.82916688  0.47612800  0.52320013     1.04300
C1205       C  0.84511015  0.44749883  0.54788267     0.93500
C1206       C  0.84677609  0.50338857  0.49816832     0.92600
C1207       C  0.84776778  0.50050157  0.55056793     0.84800
C1208       C  0.84438447  0.44980940  0.49543452     0.91000
O1209       O  0.50988342  0.87136765  0.50413157    -0.72700
O1210       O  0.46868679  0.87273179  0.54358138    -0.73700
O1211       O  0.50935254  0.87312685  0.54429633    -0.62300
O1212       O  0.46939961  0.87098122  0.50337048    -0.70700
O1213       O  0.47051616  0.83953806  0.50421703    -0.70300
O1214       O  0.50918937  0.84173501  0.54627233    -0.61500
O1215       O  0.46873482  0.84132613  0.54453915    -0.74000
O1216       O  0.51082974  0.83998699  0.50618046    -0.72800
Cu1217     Cu  0.48930718  0.87315230  0.52382576     1.04600
Cu1218     Cu  0.48979385  0.83956252  0.52537462     1.04300
C1219       C  0.51710305  0.85549040  0.49922899     0.93500
C1220       C  0.46187243  0.85719306  0.54996073     0.92600
C1221       C  0.51580704  0.85777363  0.55147863     0.84800
C1222       C  0.46384753  0.85487504  0.49722449     0.91000
O1223       O  0.50785713  0.49410031  0.91210989    -0.72700
O1224       O  0.46750577  0.45395891  0.91133323    -0.73700
O1225       O  0.50793778  0.45374747  0.91152276    -0.62300
O1226       O  0.46748050  0.49425178  0.91166981    -0.70700
O1227       O  0.46831372  0.49468329  0.88031281    -0.70300
O1228       O  0.50748814  0.45356644  0.88008532    -0.61500
O1229       O  0.46734209  0.45460350  0.87990125    -0.74000
O1230       O  0.50882630  0.49386445  0.88070744    -0.72800
Cu1231     Cu  0.48771211  0.47399950  0.91276288     1.04600
Cu1232     Cu  0.48802941  0.47421882  0.87917288     1.04300
C1233       C  0.51476677  0.50030369  0.89657373     0.93500
C1234       C  0.46078133  0.44822026  0.89553373     0.92600
C1235       C  0.51387180  0.44711613  0.89573075     0.84800
C1236       C  0.46140735  0.50080031  0.89590117     0.91000
O1237       O  0.97296624  0.95355574  0.39184176    -0.72700
O1238       O  0.01428806  0.99270378  0.39050235    -0.73700
O1239       O  0.01289998  0.95250977  0.39425946    -0.62300
O1240       O  0.97396484  0.99385561  0.38802737    -0.70700
O1241       O  0.97168956  0.99622264  0.41926400    -0.70300
O1242       O  0.01170802  0.95575283  0.42551622    -0.61500
O1243       O  0.01205249  0.99595183  0.42161800    -0.74000
O1244       O  0.97149984  0.95583345  0.42301287    -0.72800
Cu1245     Cu  0.99358826  0.97308469  0.39008789     1.04600
Cu1246     Cu  0.99166109  0.97607573  0.42343751     1.04300
C1247       C  0.96591879  0.94810472  0.40759218     0.93500
C1248       C  0.01966999  0.00064178  0.40586863     0.92600
C1249       C  0.01828527  0.94748632  0.41081119     0.84800
C1250       C  0.96669625  0.00162837  0.40269227     0.91000
O1251       O  0.00788133  0.99269884  0.64866648    -0.72700
O1252       O  0.96629847  0.95401786  0.64649691    -0.73700
O1253       O  0.96752675  0.99414036  0.64773357    -0.62300
O1254       O  0.00650562  0.95264431  0.64742012    -0.70700
O1255       O  0.00638198  0.95231644  0.67887799    -0.70300
O1256       O  0.96607575  0.99291117  0.67897457    -0.61500
O1257       O  0.96589395  0.95248511  0.67790202    -0.74000
O1258       O  0.00652415  0.99255918  0.68009902    -0.72800
Cu1259     Cu  0.98705940  0.97342297  0.64651447     1.04600
Cu1260     Cu  0.98616924  0.97253683  0.68008021     1.04300
C1261       C  0.01391209  0.99856285  0.66469293     0.93500
C1262       C  0.95951118  0.94715027  0.66181138     0.92600
C1263       C  0.96037351  0.00001461  0.66328158     0.84800
C1264       C  0.01288083  0.94621921  0.66309646     0.91000
O1265       O  0.38346802  0.99359328  0.00028678    -0.72700
O1266       O  0.38209161  0.95369908  0.04082980    -0.73700
O1267       O  0.38229224  0.95327696  0.00070728    -0.62300
O1268       O  0.38302602  0.99413275  0.04069715    -0.70700
O1269       O  0.35166050  0.99508465  0.04023444    -0.70300
O1270       O  0.35086895  0.95451729  0.00032649    -0.61500
O1271       O  0.35074198  0.95470154  0.04090119    -0.74000
O1272       O  0.35209169  0.99479608  0.00005795    -0.72800
Cu1273     Cu  0.38379997  0.97364939  0.02064583     1.04600
Cu1274     Cu  0.35024705  0.97476692  0.02037938     1.04300
C1275       C  0.36808367  0.00048716  0.99368707     0.93500
C1276       C  0.36627058  0.94802802  0.04752117     0.92600
C1277       C  0.36640464  0.94759221  0.99412503     0.84800
C1278       C  0.36743469  0.00112345  0.04675984     0.91000
O1279       O  0.97176439  0.38994470  0.99885291    -0.72700
O1280       O  0.01241799  0.38887192  0.03868126    -0.73700
O1281       O  0.01208159  0.38869097  0.99835038    -0.62300
O1282       O  0.97195783  0.38992532  0.03898019    -0.70700
O1283       O  0.97075672  0.35856076  0.03835031    -0.70300
O1284       O  0.01156837  0.35722449  0.99899369    -0.61500
O1285       O  0.01099921  0.35744345  0.03921794    -0.74000
O1286       O  0.97119889  0.35849925  0.99833042    -0.72800
Cu1287     Cu  0.99212937  0.39046056  0.01869908     1.04600
Cu1288     Cu  0.99114228  0.35684378  0.01871069     1.04300
C1289       C  0.96480154  0.37445445  0.99258528     0.93500
C1290       C  0.01788359  0.37299606  0.04546761     0.92600
C1291       C  0.01827582  0.37271713  0.99246467     0.84800
C1292       C  0.96468663  0.37434836  0.04475790     0.91000
O1293       O  0.64274965  0.95460965  0.04428634    -0.72700
O1294       O  0.63941774  0.99321470  0.00229750    -0.73700
O1295       O  0.64135618  0.99506624  0.04247808    -0.62300
O1296       O  0.64090949  0.95297233  0.00392147    -0.70700
O1297       O  0.60952603  0.95198599  0.00534970    -0.70300
O1298       O  0.61003427  0.99381567  0.04451722    -0.61500
O1299       O  0.60808773  0.99247029  0.00420997    -0.74000
O1300       O  0.61135845  0.95353762  0.04570048    -0.72800
Cu1301     Cu  0.64219002  0.97397454  0.02320066     1.04600
Cu1302     Cu  0.60866083  0.97289126  0.02497845     1.04300
C1303       C  0.62755064  0.94813771  0.05175170     0.93500
C1304       C  0.62320144  0.99915388  0.99679721     0.92600
C1305       C  0.62582490  0.00119548  0.04950797     0.84800
C1306       C  0.62516455  0.94581132  0.99854737     0.91000
O1307       O  0.01036124  0.59438556  0.04397018    -0.72700
O1308       O  0.96787586  0.59365433  0.00625216    -0.73700
O1309       O  0.96994326  0.59506110  0.04625666    -0.62300
O1310       O  0.00830878  0.59296933  0.00397784    -0.70700
O1311       O  0.00848239  0.56157383  0.00568297    -0.70300
O1312       O  0.96898611  0.56372600  0.04708168    -0.61500
O1313       O  0.96793082  0.56218138  0.00675504    -0.74000
O1314       O  0.00938480  0.56297322  0.04591223    -0.72800
Cu1315     Cu  0.98912754  0.59509607  0.02506989     1.04600
Cu1316     Cu  0.98866154  0.56150776  0.02638540     1.04300
C1317       C  0.01665365  0.57882385  0.05076037     0.93500
C1318       C  0.96111759  0.57782176  0.00066264     0.92600
C1319       C  0.96322695  0.57974795  0.05328678     0.84800
C1320       C  0.01486138  0.57697457  0.99853538     0.91000
C1321       C  0.38994985  0.39176091  0.15912229    -0.22200
C1322       C  0.40276633  0.39315190  0.14402180     0.09700
C1323       C  0.40116003  0.38060296  0.12853098     0.10100
C1324       C  0.38654269  0.36707288  0.12835068    -0.17100
C1325       C  0.37344610  0.36590232  0.14326065    -0.27600
C1326       C  0.37531505  0.37823582  0.15897389     0.18500
C1327       C  0.41801104  0.40762412  0.14480225     0.12400
C1328       C  0.41495924  0.38145938  0.11226809    -0.11900
H1329       H  0.38523915  0.35743212  0.11646691     0.12700
C1330       C  0.36243712  0.37668879  0.17594211    -0.22700
H1331       H  0.39148133  0.40125985  0.17109223     0.08400
C1332       C  0.41558004  0.42581408  0.13683824     0.04700
C1333       C  0.43082625  0.43863463  0.13689129    -0.20000
C1334       C  0.44830272  0.43379280  0.14508043    -0.12300
C1335       C  0.45059418  0.41566147  0.15340530     0.13400
C1336       C  0.43537586  0.40282971  0.15316934    -0.22700
C1337       C  0.39686012  0.43169228  0.12843001    -0.05800
H1338       H  0.42903287  0.45261182  0.13075056     0.14900
C1339       C  0.46900622  0.40907512  0.16204476    -0.16000
H1340       H  0.43716899  0.38883085  0.15926597     0.09300
H1341       H  0.34766489  0.38014245  0.17187264     0.07100
H1342       H  0.36666154  0.38663711  0.18737962     0.08300
H1343       H  0.36302048  0.36207202  0.18176024     0.07400
H1344       H  0.42955659  0.37888585  0.11755014     0.02200
H1345       H  0.41436185  0.39563357  0.10546697     0.02700
H1346       H  0.41172865  0.37063674  0.10131295     0.06200
H1347       H  0.39731423  0.44643606  0.12292035     0.05200
H1348       H  0.38564338  0.43091452  0.13943869    -0.00600
H1349       H  0.39306962  0.42212950  0.11654157     0.00900
H1350       H  0.46679992  0.40587042  0.17729109     0.04600
H1351       H  0.48057868  0.41960345  0.16083043     0.06500
H1352       H  0.47382002  0.39598399  0.15475926     0.07400
C1353       C  0.12113413  0.40671002  0.46151172    -0.22200
C1354       C  0.10820664  0.40729469  0.44648019     0.09700
C1355       C  0.09446692  0.42181235  0.44581067     0.10100
C1356       C  0.09412181  0.43562565  0.46016771    -0.17100
C1357       C  0.10730681  0.43530463  0.47509944    -0.27600
C1358       C  0.12085617  0.42048259  0.47587140     0.18500
C1359       C  0.10905443  0.39218174  0.43190590     0.12400
C1360       C  0.08020979  0.42267675  0.42995052    -0.11900
H1361       H  0.08364571  0.44685110  0.45962220     0.12700
C1362       C  0.13455953  0.41860176  0.49215952    -0.22700
H1363       H  0.13143542  0.39531865  0.46203092     0.08400
C1364       C  0.12080429  0.39377728  0.41582384     0.04700
C1365       C  0.12137419  0.37886871  0.40263905    -0.20000
C1366       C  0.11052911  0.36233577  0.40520908    -0.12300
C1367       C  0.09842909  0.36099861  0.42120757     0.13400
C1368       C  0.09810240  0.37583233  0.43446000    -0.22700
C1369       C  0.13282975  0.41114099  0.41270106    -0.05800
H1370       H  0.13060752  0.37998835  0.39041389     0.14900
C1371       C  0.08501276  0.34469115  0.42446991    -0.16000
H1372       H  0.08896522  0.37478309  0.44677479     0.09300
H1373       H  0.14451272  0.43076710  0.49228988     0.07100
H1374       H  0.14317741  0.40547140  0.49106355     0.08300
H1375       H  0.12664294  0.41805425  0.50575489     0.07400
H1376       H  0.07157112  0.40952575  0.42985182     0.02200
H1377       H  0.08764760  0.42407004  0.41616077     0.02700
H1378       H  0.07046578  0.43494061  0.43152306     0.06200
H1379       H  0.14121759  0.41012326  0.39942222     0.05200
H1380       H  0.14284865  0.41289262  0.42470262    -0.00600
H1381       H  0.12365688  0.42388647  0.41173150     0.00900
H1382       H  0.08921497  0.33693003  0.43749946     0.04600
H1383       H  0.08441191  0.33459775  0.41251314     0.06500
H1384       H  0.07041077  0.35025485  0.42637222     0.07400
C1385       C  0.41578886  0.10600556  0.46543260    -0.22200
C1386       C  0.41823298  0.09343617  0.45026083     0.09700
C1387       C  0.43359372  0.08063824  0.45054792     0.10100
C1388       C  0.44635811  0.08090494  0.46587426    -0.17100
C1389       C  0.44423343  0.09376260  0.48095885    -0.27600
C1390       C  0.42835409  0.10615892  0.48092049     0.18500
C1391       C  0.40465382  0.09406179  0.43411338     0.12400
C1392       C  0.43663410  0.06688545  0.43452109    -0.11900
H1393       H  0.45838174  0.07134039  0.46581436     0.12700
C1394       C  0.42363165  0.11920219  0.49717456    -0.22700
H1395       H  0.40379810  0.11562390  0.46530380     0.08400
C1396       C  0.38781805  0.08329111  0.43409770     0.04700
C1397       C  0.37546265  0.08439878  0.41848853    -0.20000
C1398       C  0.37940659  0.09613666  0.40283691    -0.12300
C1399       C  0.39624646  0.10717290  0.40307131     0.13400
C1400       C  0.40864013  0.10588091  0.41866350    -0.22700
C1401       C  0.38280334  0.07080775  0.45067239    -0.05800
H1402       H  0.36253907  0.07609830  0.41856823     0.14900
C1403       C  0.40096109  0.12104325  0.38753210    -0.16000
H1404       H  0.42150713  0.11427383  0.41891241     0.09300
H1405       H  0.40884358  0.11653323  0.50186794     0.07100
H1406       H  0.42480614  0.13416759  0.49244369     0.08300
H1407       H  0.43273603  0.11707808  0.50975508     0.07400
H1408       H  0.43867565  0.07478113  0.42106247     0.02200
H1409       H  0.42411683  0.05746236  0.43312710     0.02700
H1410       H  0.44931425  0.05786382  0.43689865     0.06200
H1411       H  0.36911694  0.06335910  0.44844264     0.05200
H1412       H  0.38155411  0.07954140  0.46369442    -0.00600
H1413       H  0.39399884  0.05996188  0.45279116     0.00900
H1414       H  0.41344122  0.12990071  0.39121984     0.04600
H1415       H  0.38881017  0.13073393  0.38505212     0.06500
H1416       H  0.40458170  0.11334248  0.37435798     0.07400
C1417       C  0.09603177  0.05461688  0.41139904    -0.22200
C1418       C  0.07920822  0.05714059  0.40118387     0.09700
C1419       C  0.07629649  0.07408116  0.39100096     0.10100
C1420       C  0.09046070  0.08805635  0.39103070    -0.17100
C1421       C  0.10740607  0.08565851  0.40126122    -0.27600
C1422       C  0.11001691  0.06878490  0.41192988     0.32900
C1423       C  0.06429838  0.04237871  0.40232640     0.12400
C1424       C  0.05819023  0.07741747  0.38018449    -0.11900
H1425       H  0.08832913  0.10088168  0.38284833     0.12700
C1426       C  0.12668833  0.06551972  0.42489046    -0.22700
H1427       H  0.09797834  0.04172370  0.41954706     0.08400
C1428       C  0.06341039  0.02727278  0.38930504     0.04700
C1429       C  0.04871506  0.01391714  0.39083873    -0.20000
C1430       C  0.03497421  0.01516485  0.40525841    -0.12300
C1431       C  0.03604803  0.03036330  0.41839184     0.13400
C1432       C  0.05069606  0.04374551  0.41669643    -0.22700
C1433       C  0.07798733  0.02526966  0.37384163    -0.05800
H1434       H  0.04807273  0.00232139  0.38079366     0.14900
C1435       C  0.02156938  0.03304191  0.43387076    -0.16000
H1436       H  0.05152348  0.05547172  0.42658424     0.09300
H1437       H  0.13538779  0.05360721  0.41941640     0.07100
H1438       H  0.12147216  0.06177508  0.43926340     0.08300
H1439       H  0.13578096  0.07815405  0.42664776     0.07400
H1440       H  0.04594473  0.07700214  0.39005514     0.02200
H1441       H  0.05636632  0.06627209  0.36924588     0.02700
H1442       H  0.05818608  0.09141356  0.37297153     0.06200
H1443       H  0.07526049  0.01263628  0.36486289     0.05200
H1444       H  0.09229939  0.02376630  0.38020575    -0.00600
H1445       H  0.07777111  0.03799497  0.36459239     0.00900
H1446       H  0.02233657  0.02111371  0.44409324     0.04600
H1447       H  0.00714399  0.03385249  0.42762582     0.06500
H1448       H  0.02404682  0.04631155  0.44196454     0.07400
C1449       C  0.37960073  0.03278033  0.08907329    -0.22200
C1450       C  0.36503936  0.04622748  0.08804125     0.09700
C1451       C  0.35167274  0.04517968  0.07323012     0.10100
C1452       C  0.35279823  0.03023827  0.06013258    -0.17100
C1453       C  0.36734033  0.01660818  0.06109463    -0.27600
C1454       C  0.38104622  0.01805937  0.07573316     0.18500
C1455       C  0.36446188  0.06159429  0.10235681     0.12400
C1456       C  0.33653929  0.06008836  0.07095787    -0.11900
H1457       H  0.34243261  0.02941524  0.04882576     0.12700
C1458       C  0.39687335  0.00390291  0.07784835    -0.22700
H1459       H  0.38989997  0.03385208  0.10042413     0.08400
C1460       C  0.35291980  0.06035720  0.11863497     0.04700
C1461       C  0.35301445  0.07528459  0.13179936    -0.20000
C1462       C  0.36455773  0.09132447  0.12920153    -0.12300
C1463       C  0.37659470  0.09219652  0.11315448     0.13400
C1464       C  0.37627573  0.07735457  0.09988524    -0.22700
C1465       C  0.34087164  0.04310874  0.12233955    -0.05800
H1466       H  0.34398403  0.07443499  0.14419415     0.14900
C1467       C  0.39049199  0.10817114  0.11034982    -0.16000
H1468       H  0.38541535  0.07793466  0.08754926     0.09300
H1469       H  0.40567960  0.00679911  0.09056840     0.07100
H1470       H  0.40636443  0.00448073  0.06532866     0.08300
H1471       H  0.39082199  0.98949225  0.07938746     0.07400
H1472       H  0.34326217  0.07418633  0.06903148     0.02200
H1473       H  0.32733208  0.06050707  0.08367787     0.02700
H1474       H  0.32741247  0.05727901  0.05844793     0.06200
H1475       H  0.33290603  0.04435176  0.13585733     0.05200
H1476       H  0.35003712  0.03034661  0.12322115    -0.00600
H1477       H  0.33045685  0.04113922  0.11074713     0.00900
H1478       H  0.39991032  0.10559203  0.09800421     0.04600
H1479       H  0.39957988  0.10964346  0.12310924     0.06500
H1480       H  0.38288182  0.12162335  0.10764271     0.07400
C1481       C  0.08874031  0.35481006  0.10213858    -0.22200
C1482       C  0.07637652  0.37031463  0.10283917     0.09700
C1483       C  0.07744809  0.38309277  0.11818163     0.10100
C1484       C  0.09087890  0.37998053  0.13258033    -0.17100
C1485       C  0.10321123  0.36436876  0.13197240    -0.27600
C1486       C  0.10200509  0.35151327  0.11658529     0.18500
C1487       C  0.06137100  0.37182993  0.08819644     0.12400
C1488       C  0.06427770  0.39984449  0.11943610    -0.11900
H1489       H  0.09178029  0.38977522  0.14437592     0.12700
C1490       C  0.11369672  0.33366676  0.11529465    -0.22700
H1491       H  0.08760892  0.34484476  0.09049594     0.08400
C1492       C  0.06410432  0.38195323  0.07116816     0.04700
C1493       C  0.04948942  0.38239079  0.05761851    -0.20000
C1494       C  0.03236494  0.37266070  0.06060871    -0.12300
C1495       C  0.02960128  0.36272017  0.07783669     0.13400
C1496       C  0.04421623  0.36233736  0.09130903    -0.22700
C1497       C  0.08251984  0.39198507  0.06719991    -0.05800
H1498       H  0.05159028  0.39000361  0.04443488     0.14900
C1499       C  0.01129044  0.35290227  0.08287829    -0.16000
H1500       H  0.04217382  0.35464330  0.10446208     0.09300
H1501       H  0.12287835  0.33431486  0.10253479     0.07100
H1502       H  0.10412054  0.32123806  0.11402812     0.08300
H1503       H  0.12275576  0.33118760  0.12784163     0.07400
H1504       H  0.04935977  0.39486598  0.11989961     0.02200
H1505       H  0.06621888  0.40913854  0.10689706     0.02700
H1506       H  0.06699189  0.40842588  0.13234322     0.06200
H1507       H  0.08235561  0.39913449  0.05317366     0.05200
H1508       H  0.09434094  0.38159780  0.06728303    -0.00600
H1509       H  0.08517308  0.40288486  0.07820975     0.00900
H1510       H  0.01388611  0.33746916  0.08454694     0.04600
H1511       H  0.99994760  0.35494856  0.07224294     0.06500
H1512       H  0.00588446  0.35862348  0.09650355     0.07400
C1513       C  0.83237767  0.39707072  0.41915266    -0.22200
C1514       C  0.84333099  0.39382652  0.43536496     0.09700
C1515       C  0.85367717  0.37681753  0.43702392     0.10100
C1516       C  0.85306150  0.36350517  0.42223876    -0.17100
C1517       C  0.84229326  0.36672195  0.40576262    -0.27600
C1518       C  0.83162893  0.38375656  0.40433510     0.18500
C1519       C  0.84358544  0.40835425  0.45056693     0.12400
C1520       C  0.86532171  0.37272666  0.45444397    -0.11900
H1521       H  0.86115452  0.35051480  0.42353721     0.12700
C1522       C  0.81876282  0.38781755  0.38778279    -0.22700
H1523       H  0.82431514  0.41011601  0.41814947     0.08400
C1524       C  0.85667882  0.42344652  0.45036292     0.04700
C1525       C  0.85658734  0.43666571  0.46524081    -0.20000
C1526       C  0.84371869  0.43514966  0.48038308    -0.12300
C1527       C  0.83086940  0.41966330  0.48075151     0.13400
C1528       C  0.83076120  0.40672034  0.46562715    -0.22700
C1529       C  0.87074373  0.42555237  0.43444541    -0.05800
H1530       H  0.86653571  0.44837149  0.46496232     0.14900
C1531       C  0.81778225  0.41557055  0.49716006    -0.16000
H1532       H  0.82093327  0.39490338  0.46583936     0.09300
H1533       H  0.82724843  0.39078456  0.37493106     0.07100
H1534       H  0.80982057  0.40052182  0.39034278     0.08300
H1535       H  0.80912364  0.37563049  0.38530936     0.07400
H1536       H  0.85601517  0.37252632  0.46712785     0.02200
H1537       H  0.87629268  0.38385325  0.45626059     0.02700
H1538       H  0.87257880  0.35878976  0.45348745     0.06200
H1539       H  0.88002772  0.43810126  0.43647294     0.05200
H1540       H  0.86310421  0.42726228  0.42079935    -0.00600
H1541       H  0.87988728  0.41277034  0.43368678     0.00900
H1542       H  0.80283354  0.41697003  0.49245121     0.04600
H1543       H  0.82010004  0.42484613  0.50956090     0.06500
H1544       H  0.82014993  0.40082794  0.50216097     0.07400
C1545       C  0.56933698  0.08549074  0.42165583    -0.22200
C1546       C  0.57169711  0.09707675  0.43759810     0.09700
C1547       C  0.58854508  0.10762835  0.43963919     0.10100
C1548       C  0.60261383  0.10646509  0.42558469    -0.17100
C1549       C  0.60033832  0.09490797  0.40949867    -0.27600
C1550       C  0.58351120  0.08401225  0.40771904     0.18500
C1551       C  0.55666198  0.09736329  0.45235378     0.12400
C1552       C  0.59156610  0.12026492  0.45656943    -0.11900
H1553       H  0.61537337  0.11488575  0.42705061     0.12700
C1554       C  0.58025452  0.06998366  0.39195261    -0.22700
H1555       H  0.55649357  0.07715397  0.42031756     0.08400
C1556       C  0.54050460  0.10903984  0.45072329     0.04700
C1557       C  0.52664184  0.10866497  0.46505157    -0.20000
C1558       C  0.52858603  0.09688571  0.48100308    -0.12300
C1559       C  0.54521311  0.08572607  0.48292680     0.13400
C1560       C  0.55880839  0.08586019  0.46839397    -0.22700
C1561       C  0.53796418  0.12190614  0.43388780    -0.05800
H1562       H  0.51407720  0.11739813  0.46365445     0.14900
C1563       C  0.54967294  0.07421116  0.50039448    -0.16000
H1564       H  0.57143320  0.07719628  0.46976550     0.09300
H1565       H  0.56808165  0.07468068  0.38315482     0.07100
H1566       H  0.57690921  0.05588620  0.39811694     0.08300
H1567       H  0.59275204  0.06798405  0.38271862     0.07400
H1568       H  0.59130551  0.11167895  0.46975185     0.02200
H1569       H  0.58016558  0.13109384  0.45721528     0.02700
H1570       H  0.60540376  0.12773747  0.45588176     0.06200
H1571       H  0.52462900  0.13021690  0.43485502     0.05200
H1572       H  0.53747480  0.11336755  0.42069067    -0.00600
H1573       H  0.54999891  0.13201180  0.43306448     0.00900
H1574       H  0.55007064  0.05892586  0.49668627     0.04600
H1575       H  0.53947176  0.07633060  0.51210387     0.06500
H1576       H  0.56378230  0.07843652  0.50594868     0.07400
C1577       C  0.59054048  0.39193322  0.12875121    -0.22200
C1578       C  0.57614999  0.38984775  0.14230511     0.09700
C1579       C  0.57643866  0.37403365  0.15452625     0.10100
C1580       C  0.59129370  0.36083931  0.15316241    -0.17100
C1581       C  0.60592121  0.36294553  0.13978049    -0.27600
C1582       C  0.60529560  0.37858616  0.12713692     0.18500
C1583       C  0.56081423  0.40429495  0.14341931     0.12400
C1584       C  0.56109560  0.37114975  0.16908564    -0.11900
H1585       H  0.59162609  0.34891660  0.16284701     0.12700
C1586       C  0.61933028  0.38131326  0.11126937    -0.22700
H1587       H  0.59010262  0.40394675  0.11916926     0.08400
C1588       C  0.56260774  0.42058158  0.15488518     0.04700
C1589       C  0.54767433  0.43377945  0.15563961    -0.20000
C1590       C  0.53100066  0.43114565  0.14508433    -0.12300
C1591       C  0.52900272  0.41447521  0.13402885     0.13400
C1592       C  0.54403425  0.40140738  0.13318405    -0.22700
C1593       C  0.58036752  0.42407636  0.16618575    -0.05800
H1594       H  0.54921643  0.44647366  0.16414906     0.14900
C1595       C  0.51103665  0.40956936  0.12353619    -0.16000
H1596       H  0.54254805  0.38869576  0.12468193     0.09300
H1597       H  0.62735835  0.39465046  0.11355728     0.07100
H1598       H  0.61160405  0.38234119  0.09759504     0.08300
H1599       H  0.62950905  0.36947099  0.10989025     0.07400
H1600       H  0.54714909  0.36985410  0.16192086     0.02200
H1601       H  0.56071240  0.38339784  0.17894056     0.02700
H1602       H  0.56347081  0.35810198  0.17757382     0.06200
H1603       H  0.57949967  0.43746717  0.17440701     0.05200
H1604       H  0.59272249  0.42506171  0.15649350    -0.00600
H1605       H  0.58267688  0.41225000  0.17630498     0.00900
H1606       H  0.51393713  0.40904468  0.10808381     0.04600
H1607       H  0.49933660  0.41969827  0.12611814     0.06500
H1608       H  0.50595277  0.39542810  0.12823410     0.07400
C1609       C  0.61212297  0.07456248  0.10643454    -0.22200
C1610       C  0.62650402  0.06083960  0.10627724     0.09700
C1611       C  0.64089184  0.06156944  0.12016133     0.10100
C1612       C  0.64047462  0.07591117  0.13400315    -0.17100
C1613       C  0.62616266  0.08976127  0.13413305    -0.27600
C1614       C  0.61175720  0.08901756  0.12017752     0.18500
C1615       C  0.62600758  0.04559216  0.09168909     0.12400
C1616       C  0.65656737  0.04708544  0.12045450    -0.11900
H1617       H  0.65148008  0.07641885  0.14470695     0.12700
C1618       C  0.59553209  0.10289926  0.12017049    -0.22700
H1619       H  0.60104545  0.07383707  0.09581749     0.08400
C1620       C  0.61435028  0.02946500  0.09382159     0.04700
C1621       C  0.61441551  0.01533801  0.07975482    -0.20000
C1622       C  0.62609642  0.01678946  0.06368985    -0.12300
C1623       C  0.63763257  0.03309728  0.06147948     0.13400
C1624       C  0.63740632  0.04728617  0.07550135    -0.22700
C1625       C  0.60206112  0.02705746  0.11110261    -0.05800
H1626       H  0.60554797  0.00290962  0.08148044     0.14900
C1627       C  0.64970497  0.03596151  0.04408854    -0.16000
H1628       H  0.64618771  0.05978781  0.07387138     0.09300
H1629       H  0.58496679  0.09950993  0.10900752     0.07100
H1630       H  0.60082951  0.11742465  0.11740775     0.08300
H1631       H  0.58818716  0.10251196  0.13408055     0.07400
H1632       H  0.66470076  0.04777678  0.10700731     0.02200
H1633       H  0.65046224  0.03267258  0.12208734     0.02700
H1634       H  0.66657743  0.04955514  0.13234528     0.06200
H1635       H  0.59402232  0.01352828  0.11071580     0.05200
H1636       H  0.59171064  0.03887302  0.11197454    -0.00600
H1637       H  0.61103180  0.02705739  0.12402976     0.00900
H1638       H  0.65685380  0.04998763  0.04419016     0.04600
H1639       H  0.64072775  0.03519158  0.03118140     0.06500
H1640       H  0.66090036  0.02494512  0.04340945     0.07400
C1641       C  0.89223459  0.05570653  0.38384489    -0.22200
C1642       C  0.90772304  0.05883526  0.39586627     0.09700
C1643       C  0.90868357  0.07586632  0.40630381     0.10100
C1644       C  0.89398713  0.08927483  0.40468695    -0.17100
C1645       C  0.87818382  0.08604567  0.39297430    -0.27600
C1646       C  0.87747998  0.06906544  0.38219826     0.18500
C1647       C  0.92268850  0.04399879  0.39748492     0.12400
C1648       C  0.92519553  0.07980241  0.41923574    -0.11900
H1649       H  0.89474362  0.10229421  0.41279431     0.12700
C1650       C  0.86173920  0.06518390  0.36830371    -0.22700
H1651       H  0.89170336  0.04268345  0.37571949     0.08400
C1652       C  0.92087265  0.02870444  0.41025109     0.04700
C1653       C  0.93555942  0.01529546  0.41172578    -0.20000
C1654       C  0.95203871  0.01665478  0.40060901    -0.12300
C1655       C  0.95389626  0.03214039  0.38787507     0.13400
C1656       C  0.93909897  0.04545510  0.38636708    -0.22700
C1657       C  0.90341102  0.02657208  0.42233469    -0.05800
H1658       H  0.93405510  0.00350578  0.42146931     0.14900
C1659       C  0.97150623  0.03570760  0.37629365    -0.16000
H1660       H  0.94054315  0.05732410  0.37670458     0.09300
H1661       H  0.84824018  0.06275923  0.37591682     0.07100
H1662       H  0.86458615  0.05227600  0.35975919     0.08300
H1663       H  0.86023208  0.07729372  0.35836118     0.07400
H1664       H  0.93854789  0.07997439  0.41091505     0.02200
H1665       H  0.92611701  0.06860276  0.43025531     0.02700
H1666       H  0.92375179  0.09370648  0.42646457     0.06200
H1667       H  0.90424609  0.01388133  0.43161783     0.05200
H1668       H  0.89073286  0.02508332  0.41313941    -0.00600
H1669       H  0.90169354  0.03924862  0.43148740     0.00900
H1670       H  0.96801748  0.03474111  0.36098391     0.04600
H1671       H  0.98320956  0.02576112  0.37943488     0.06500
H1672       H  0.97690906  0.05017507  0.37933570     0.07400
C1673       C  0.92095525  0.36128516  0.07377171    -0.22200
C1674       C  0.92149603  0.37513829  0.08794140     0.09700
C1675       C  0.93559321  0.38928553  0.08740466     0.10100
C1676       C  0.94924377  0.38893637  0.07290654    -0.17100
C1677       C  0.94926588  0.37458220  0.05908625    -0.27600
C1678       C  0.93460856  0.36079708  0.05931296     0.18500
C1679       C  0.90789442  0.37363881  0.10386816     0.12400
C1680       C  0.93636813  0.40453839  0.10229851    -0.11900
H1681       H  0.96026946  0.39963059  0.07268814     0.12700
C1682       C  0.93291925  0.34575096  0.04422911    -0.22700
H1683       H  0.90994464  0.35057538  0.07426737     0.08400
C1684       C  0.88970302  0.38180499  0.10303596     0.04700
C1685       C  0.87701585  0.37888439  0.11810175    -0.20000
C1686       C  0.88195969  0.36774771  0.13392295    -0.12300
C1687       C  0.90033193  0.35953426  0.13461418     0.13400
C1688       C  0.91303169  0.36272026  0.11960801    -0.22700
C1689       C  0.88358021  0.39324910  0.08608421    -0.05800
H1690       H  0.86300085  0.38512854  0.11737054     0.14900
C1691       C  0.90651926  0.34658713  0.15042989    -0.16000
H1692       H  0.92699930  0.35631107  0.11992028     0.09300
H1693       H  0.91979273  0.33722455  0.04592660     0.07100
H1694       H  0.94506577  0.33580694  0.04509083     0.08300
H1695       H  0.93247821  0.35247953  0.03000196     0.07400
H1696       H  0.93829839  0.39802322  0.11649007     0.02200
H1697       H  0.92297450  0.41278588  0.10218395     0.02700
H1698       H  0.94828439  0.41451955  0.09980707     0.06200
H1699       H  0.86885506  0.39858912  0.08765821     0.05200
H1700       H  0.88418953  0.38431993  0.07314952    -0.00600
H1701       H  0.89311279  0.40562422  0.08425255     0.00900
H1702       H  0.92039947  0.33982294  0.14734460     0.04600
H1703       H  0.89598620  0.33507417  0.15245833     0.06500
H1704       H  0.90833412  0.35478717  0.16367495     0.07400
C1705       C  0.56303622  0.84392852  0.47326580    -0.22200
C1706       C  0.56055921  0.85431451  0.45652009     0.09700
C1707       C  0.54407159  0.86534359  0.45406851     0.10100
C1708       C  0.53027611  0.86560983  0.46838946    -0.17100
C1709       C  0.53259023  0.85509619  0.48512403    -0.27600
C1710       C  0.54940717  0.84439724  0.48777220     0.18500
C1711       C  0.57561353  0.85396425  0.44187727     0.12400
C1712       C  0.54110829  0.87687121  0.43634216    -0.11900
H1713       H  0.51747182  0.87387403  0.46640492     0.12700
C1714       C  0.55395982  0.83406792  0.50593476    -0.22700
H1715       H  0.57590523  0.83574731  0.47519965     0.08400
C1716       C  0.59122104  0.86640118  0.44273045     0.04700
C1717       C  0.60455242  0.86637683  0.42796850    -0.20000
C1718       C  0.60262993  0.85423549  0.41231131    -0.12300
C1719       C  0.58722085  0.84131885  0.41180240     0.13400
C1720       C  0.57387777  0.84143586  0.42659648    -0.22700
C1721       C  0.59369776  0.87977399  0.45917165    -0.05800
H1722       H  0.61648012  0.87604060  0.42856565     0.14900
C1723       C  0.58506237  0.82684451  0.39625441    -0.16000
H1724       H  0.56192471  0.83178775  0.42622232     0.09300
H1725       H  0.56782538  0.83908380  0.51144346     0.07100
H1726       H  0.55491790  0.81861611  0.50312587     0.08300
H1727       H  0.54343829  0.83647834  0.51730905     0.07400
H1728       H  0.54087736  0.86738022  0.42380406     0.02200
H1729       H  0.55280444  0.88727538  0.43473679     0.02700
H1730       H  0.52751590  0.88480198  0.43673458     0.06200
H1731       H  0.60662175  0.88862288  0.45760253     0.05200
H1732       H  0.59497588  0.87156726  0.47253791    -0.00600
H1733       H  0.58126873  0.88937264  0.46015887     0.00900
H1734       H  0.57340121  0.81671766  0.39931727     0.04600
H1735       H  0.59834618  0.81854177  0.39474710     0.06500
H1736       H  0.58155546  0.83392343  0.38269985     0.07400
C1737       C  0.86875001  0.56098765  0.43025207    -0.22200
C1738       C  0.85341859  0.56302882  0.44269489     0.09700
C1739       C  0.84170466  0.57916190  0.44140688     0.10100
C1740       C  0.84550234  0.59287024  0.42747945    -0.17100
C1741       C  0.86071326  0.59075939  0.41477929    -0.27600
C1742       C  0.87259373  0.57466786  0.41630877     0.18500
C1743       C  0.85030047  0.54823213  0.45725362     0.12400
C1744       C  0.82522169  0.58184918  0.45469749    -0.11900
H1745       H  0.83641660  0.60520909  0.42636368     0.12700
C1746       C  0.88978715  0.57219988  0.40388938    -0.22700
H1747       H  0.87780926  0.54864326  0.43156503     0.08400
C1748       C  0.83992028  0.53162062  0.45323797     0.04700
C1749       C  0.83847871  0.51741274  0.46711827    -0.20000
C1750       C  0.84736383  0.51942911  0.48479187    -0.12300
C1751       C  0.85711856  0.53643706  0.48905360     0.13400
C1752       C  0.85857971  0.55056355  0.47513772    -0.22700
C1753       C  0.83061291  0.52883411  0.43423960    -0.05800
H1754       H  0.83086038  0.50444388  0.46398125     0.14900
C1755       C  0.86574391  0.54039134  0.50820472    -0.16000
H1756       H  0.86631809  0.56347956  0.47822081     0.09300
H1757       H  0.88546125  0.57028907  0.38892740     0.07100
H1758       H  0.89817694  0.55952940  0.40801682     0.08300
H1759       H  0.89912236  0.58480684  0.40513104     0.07400
H1760       H  0.83039873  0.58240068  0.46954125     0.02200
H1761       H  0.81514682  0.56986070  0.45319253     0.02700
H1762       H  0.81744168  0.59520836  0.45171040     0.06200
H1763       H  0.82301551  0.51506992  0.43344216     0.05200
H1764       H  0.84149689  0.52909713  0.42288310    -0.00600
H1765       H  0.82019820  0.54034725  0.43167439     0.00900
H1766       H  0.88128709  0.54231193  0.50668961     0.04600
H1767       H  0.86314030  0.52898545  0.51867234     0.06500
H1768       H  0.85953927  0.55360660  0.51408422     0.07400
C1769       C  0.57440768  0.57400882  0.13730182    -0.22200
C1770       C  0.57644106  0.55756455  0.14824393     0.09700
C1771       C  0.59285779  0.55516703  0.15939257     0.10100
C1772       C  0.60681255  0.56938619  0.15948027    -0.17100
C1773       C  0.60484300  0.58598255  0.14859202    -0.27600
C1774       C  0.58850256  0.58809376  0.13702438     0.18500
C1775       C  0.56137567  0.54284907  0.14752540     0.12400
C1776       C  0.59549413  0.53771190  0.17140784    -0.11900
H1777       H  0.61920031  0.56765582  0.16839177     0.12700
C1778       C  0.58571922  0.60439107  0.12348071    -0.22700
H1779       H  0.56189155  0.57564910  0.12853219     0.08400
C1780       C  0.54476783  0.54431943  0.15855072     0.04700
C1781       C  0.53105801  0.52989707  0.15759450    -0.20000
C1782       C  0.53351149  0.51401522  0.14582237    -0.12300
C1783       C  0.55040376  0.51240072  0.13503807     0.13400
C1784       C  0.56395205  0.52698951  0.13584828    -0.22700
C1785       C  0.54160482  0.56104831  0.17141262    -0.05800
H1786       H  0.51822831  0.53111881  0.16595995     0.14900
C1787       C  0.55517991  0.49521495  0.12326767    -0.16000
H1788       H  0.57686550  0.52579445  0.12759967     0.09300
H1789       H  0.57348809  0.61311487  0.12815952     0.07100
H1790       H  0.58270599  0.59876879  0.10909583     0.08300
H1791       H  0.59834475  0.61355857  0.12207205     0.07400
H1792       H  0.59572989  0.52491940  0.16226340     0.02200
H1793       H  0.58364487  0.53650230  0.18169124     0.02700
H1794       H  0.60899162  0.53816960  0.17949256     0.06200
H1795       H  0.52796900  0.55992540  0.17919783     0.05200
H1796       H  0.54132510  0.57430936  0.16294480    -0.00600
H1797       H  0.55323662  0.56189085  0.18197475     0.00900
H1798       H  0.55621868  0.49934332  0.10812021     0.04600
H1799       H  0.54475795  0.48358253  0.12462190     0.06500
H1800       H  0.56906733  0.48942114  0.12789770     0.07400
C1801       C  0.93135982  0.56866508  0.09599085    -0.22200
C1802       C  0.92003477  0.58497640  0.09665672     0.09700
C1803       C  0.92284981  0.59939091  0.08305924     0.10100
C1804       C  0.93699261  0.59720111  0.06920945    -0.17100
C1805       C  0.94841053  0.58085524  0.06839257    -0.27600
C1806       C  0.94542669  0.56632436  0.08202470     0.18500
C1807       C  0.90561965  0.58690066  0.11197041     0.12400
C1808       C  0.91071345  0.61697457  0.08292870    -0.11900
H1809       H  0.93899212  0.60831969  0.05879660     0.12700
C1810       C  0.95724581  0.54853183  0.08240013    -0.22700
H1811       H  0.92922396  0.55773643  0.10658063     0.08400
C1812       C  0.88856847  0.57641353  0.11188775     0.04700
C1813       C  0.87528936  0.57912652  0.12652606    -0.20000
C1814       C  0.87851578  0.59224166  0.14117462    -0.12300
C1815       C  0.89539571  0.60318969  0.14082936     0.13400
C1816       C  0.90890352  0.59992782  0.12658251    -0.22700
C1817       C  0.88423350  0.56262043  0.09619326    -0.05800
H1818       H  0.86232590  0.57088390  0.12658255     0.14900
C1819       C  0.89929662  0.61926197  0.15435686    -0.16000
H1820       H  0.92189687  0.60814030  0.12648850     0.09300
H1821       H  0.95476560  0.54015787  0.06933081     0.07100
H1822       H  0.95357904  0.53931464  0.09462912     0.08300
H1823       H  0.97249200  0.55225562  0.08358621     0.07400
H1824       H  0.91273546  0.62503894  0.09626277     0.02200
H1825       H  0.89556434  0.61295222  0.08152656     0.02700
H1826       H  0.91436959  0.62651630  0.07095017     0.06200
H1827       H  0.87008976  0.55595713  0.09802913     0.05200
H1828       H  0.89499612  0.55115662  0.09598776    -0.00600
H1829       H  0.88436117  0.57012600  0.08235913     0.00900
H1830       H  0.91154027  0.61559160  0.16353158     0.04600
H1831       H  0.88703221  0.62300445  0.16334263     0.06500
H1832       H  0.90282496  0.63223796  0.14616079     0.07400
C1833       C  0.93193925  0.90788434  0.39382070    -0.22200
C1834       C  0.92286841  0.90440319  0.41111155     0.09700
C1835       C  0.92840788  0.91467581  0.42731577     0.10100
C1836       C  0.94248423  0.92867279  0.42567566    -0.17100
C1837       C  0.95128010  0.93274906  0.40819449    -0.27600
C1838       C  0.94597838  0.92189140  0.39203630     0.18500
C1839       C  0.90723585  0.89028415  0.41160643     0.12400
C1840       C  0.91919949  0.91117999  0.44626239    -0.11900
H1841       H  0.94645711  0.93661084  0.43819338     0.12700
C1842       C  0.95485556  0.92469913  0.37279144    -0.22700
H1843       H  0.92776013  0.89967329  0.38153000     0.08400
C1844       C  0.88966059  0.89396977  0.40279965     0.04700
C1845       C  0.87570711  0.87979429  0.40248758    -0.20000
C1846       C  0.87872828  0.86199534  0.41095171    -0.12300
C1847       C  0.89606988  0.85870034  0.42063142     0.13400
C1848       C  0.91016046  0.87280750  0.42057530    -0.22700
C1849       C  0.88550111  0.91297406  0.39395032    -0.05800
H1850       H  0.86243892  0.88258493  0.39528532     0.14900
C1851       C  0.89969321  0.84081665  0.43174745    -0.16000
H1852       H  0.92363465  0.87015137  0.42746044     0.09300
H1853       H  0.95181515  0.93920993  0.36752231     0.07100
H1854       H  0.94915143  0.91460763  0.36214607     0.08300
H1855       H  0.97038745  0.92233788  0.37364005     0.07400
H1856       H  0.92191901  0.89640800  0.45092192     0.02200
H1857       H  0.90367752  0.91351505  0.44514823     0.02700
H1858       H  0.92482403  0.92082305  0.45735211     0.06200
H1859       H  0.87081089  0.91371921  0.38834600     0.05200
H1860       H  0.89534159  0.91567513  0.38199547    -0.00600
H1861       H  0.88718505  0.92430983  0.40472991     0.00900
H1862       H  0.90187974  0.82868983  0.42206508     0.04600
H1863       H  0.88763870  0.83795729  0.44145082     0.06500
H1864       H  0.91270076  0.84200129  0.44053596     0.07400
C1865       C  0.61799261  0.92043873  0.09715380    -0.22200
C1866       C  0.63009907  0.90489105  0.09476148     0.09700
C1867       C  0.64187400  0.90395907  0.07864207     0.10100
C1868       C  0.64109260  0.91855916  0.06509770    -0.17100
C1869       C  0.62869722  0.93400663  0.06725252    -0.27600
C1870       C  0.61730369  0.93516115  0.08377783     0.18500
C1871       C  0.63007165  0.88973191  0.10933954     0.12400
C1872       C  0.65507184  0.88745102  0.07567109    -0.11900
H1873       H  0.64986928  0.91767667  0.05252056     0.12700
C1874       C  0.60482343  0.95193530  0.08826370    -0.22700
H1875       H  0.60917594  0.92120446  0.10971972     0.08400
C1876       C  0.64159999  0.89085566  0.12561400     0.04700
C1877       C  0.64055361  0.87646839  0.13934497    -0.20000
C1878       C  0.62809877  0.86103694  0.13729737    -0.12300
C1879       C  0.61620089  0.86022371  0.12110798     0.13400
C1880       C  0.61762288  0.87442064  0.10721170    -0.22700
C1881       C  0.65494967  0.90726651  0.12847891    -0.05800
H1882       H  0.64962817  0.87721507  0.15171374     0.14900
C1883       C  0.60111147  0.84534760  0.11836518    -0.16000
H1884       H  0.60852497  0.87384737  0.09483849     0.09300
H1885       H  0.60862597  0.95761131  0.10243921     0.07100
H1886       H  0.58976297  0.94738356  0.08851547     0.08300
H1887       H  0.60636528  0.96379497  0.07811837     0.07400
H1888       H  0.64678835  0.87409379  0.07493009     0.02200
H1889       H  0.66526152  0.88653385  0.08761731     0.02700
H1890       H  0.66328726  0.88889284  0.06232285     0.06200
H1891       H  0.66299067  0.90595584  0.14194590     0.05200
H1892       H  0.64681225  0.92072788  0.12891748    -0.00600
H1893       H  0.66528920  0.90788085  0.11664261     0.00900
H1894       H  0.58723724  0.85238008  0.11593350     0.04600
H1895       H  0.59923825  0.83596645  0.13077269     0.06500
H1896       H  0.60460254  0.83656196  0.10579452     0.07400
C1897       C  0.11729433  0.57529872  0.43381040    -0.22200
C1898       C  0.10289078  0.56168092  0.43256686     0.09700
C1899       C  0.09010034  0.56235696  0.41720897     0.10100
C1900       C  0.09203735  0.57666594  0.40342251    -0.17100
C1901       C  0.10647585  0.59035098  0.40463013    -0.27600
C1902       C  0.11950337  0.58939701  0.41991316     0.18500
C1903       C  0.10218499  0.54634133  0.44705523     0.12400
C1904       C  0.07457883  0.54784566  0.41529124    -0.11900
H1905       H  0.08216787  0.57723632  0.39166476     0.12700
C1906       C  0.13653058  0.60219799  0.42160937    -0.22700
H1907       H  0.12730027  0.57453869  0.44545282     0.08400
C1908       C  0.11460151  0.53069051  0.44616986     0.04700
C1909       C  0.11432743  0.51708205  0.46071254    -0.20000
C1910       C  0.10192423  0.51865509  0.47622163    -0.12300
C1911       C  0.08944542  0.53442957  0.47709958     0.13400
C1912       C  0.08962190  0.54791623  0.46237363    -0.22700
C1913       C  0.12809317  0.52831213  0.42979642    -0.05800
H1914       H  0.12384522  0.50504295  0.45992589     0.14900
C1915       C  0.07649116  0.53820097  0.49367063    -0.16000
H1916       H  0.08026314  0.56008533  0.46312807     0.09300
H1917       H  0.14955445  0.59342241  0.42272609     0.07100
H1918       H  0.13522944  0.61099498  0.43458185     0.08300
H1919       H  0.13852210  0.61165669  0.40927687     0.07400
H1920       H  0.06507017  0.54853790  0.42780404     0.02200
H1921       H  0.08085524  0.53344368  0.41435920     0.02700
H1922       H  0.06589417  0.55027923  0.40239077     0.06200
H1923       H  0.13659237  0.51512418  0.43110286     0.05200
H1924       H  0.13804852  0.54047765  0.42923560    -0.00600
H1925       H  0.12000025  0.52762181  0.41632150     0.00900
H1926       H  0.07947917  0.55252910  0.49945677     0.04600
H1927       H  0.07829856  0.52808241  0.50550109     0.06500
H1928       H  0.06151729  0.53772165  0.48885822     0.07400
C1929       C  0.39336631  0.83327582  0.44052894    -0.22200
C1930       C  0.40591237  0.84863938  0.43934625     0.09700
C1931       C  0.40461698  0.86116226  0.42379417     0.10100
C1932       C  0.39081971  0.85800869  0.40976138    -0.17100
C1933       C  0.37813979  0.84270005  0.41094578    -0.27600
C1934       C  0.37962502  0.83000015  0.42647270     0.18500
C1935       C  0.42072890  0.85091131  0.45419662     0.12400
C1936       C  0.41759470  0.87802906  0.42218668    -0.11900
H1937       H  0.38971902  0.86774275  0.39792174     0.12700
C1938       C  0.36767501  0.81238558  0.42834826    -0.22700
H1939       H  0.39457933  0.82351206  0.45234188     0.08400
C1940       C  0.41655701  0.85868265  0.47216096     0.04700
C1941       C  0.43103047  0.86019908  0.48580421    -0.20000
C1942       C  0.44951774  0.85392274  0.48195520    -0.12300
C1943       C  0.45375756  0.84644391  0.46383692     0.13400
C1944       C  0.43928325  0.84496751  0.45023737    -0.22700
C1945       C  0.39685794  0.86539279  0.47688691    -0.05800
H1946       H  0.42783410  0.86597502  0.49967452     0.14900
C1947       C  0.47343497  0.84029901  0.45820222    -0.16000
H1948       H  0.44249915  0.83913395  0.43639280     0.09300
H1949       H  0.35874974  0.81342353  0.44126284     0.07100
H1950       H  0.37706668  0.79982011  0.42968259     0.08300
H1951       H  0.35837100  0.80983622  0.41599837     0.07400
H1952       H  0.43254546  0.87322237  0.42131480     0.02200
H1953       H  0.41584516  0.88726715  0.43479931     0.02700
H1954       H  0.41446978  0.88660078  0.40935513     0.06200
H1955       H  0.39605842  0.87131335  0.49144531     0.05200
H1956       H  0.38675192  0.85337438  0.47595544    -0.00600
H1957       H  0.39250612  0.87662817  0.46675835     0.00900
H1958       H  0.47331001  0.82500779  0.45449915     0.04600
H1959       H  0.48409547  0.84253536  0.46950986     0.06500
H1960       H  0.47808183  0.84854499  0.44562298     0.07400
C1961       C  0.40413299  0.57009478  0.15776650    -0.22200
C1962       C  0.40584034  0.55803644  0.14210444     0.09700
C1963       C  0.39283448  0.55965827  0.12698478     0.10100
C1964       C  0.37856445  0.57357968  0.12775991    -0.17100
C1965       C  0.37701814  0.58587631  0.14332476    -0.27600
C1966       C  0.38976629  0.58383260  0.15871322     0.18500
C1967       C  0.42098940  0.54340615  0.14224134     0.12400
C1968       C  0.39404228  0.54669181  0.11008764    -0.11900
H1969       H  0.36869090  0.57502353  0.11607925     0.12700
C1970       C  0.38825495  0.59527273  0.17669002    -0.22700
H1971       H  0.41392014  0.56854779  0.16951567     0.08400
C1972       C  0.43928307  0.54714338  0.13505364     0.04700
C1973       C  0.45323703  0.53291907  0.13589214    -0.20000
C1974       C  0.44937877  0.51516440  0.14403603    -0.12300
C1975       C  0.43094688  0.51138130  0.15104205     0.13400
C1976       C  0.41704625  0.52561326  0.15015421    -0.22700
C1977       C  0.44407355  0.56617947  0.12665844    -0.05800
H1978       H  0.46730487  0.53573434  0.13038955     0.14900
C1979       C  0.42519843  0.49236040  0.15893884    -0.16000
H1980       H  0.40294542  0.52276679  0.15556756     0.09300
H1981       H  0.40125134  0.60395078  0.17851154     0.07100
H1982       H  0.38689723  0.58551851  0.18897380     0.08300
H1983       H  0.37580061  0.60479735  0.17699526     0.07400
H1984       H  0.39236373  0.53174851  0.11473165     0.02200
H1985       H  0.40800852  0.54836311  0.10304932     0.02700
H1986       H  0.38281387  0.54984710  0.09951574     0.06200
H1987       H  0.45900906  0.56677807  0.12172102     0.05200
H1988       H  0.44202962  0.57741706  0.13747345    -0.00600
H1989       H  0.43472360  0.56911677  0.11435776     0.00900
H1990       H  0.42067948  0.49403118  0.17391370     0.04600
H1991       H  0.43667508  0.48167257  0.15843191     0.06500
H1992       H  0.41312184  0.48667383  0.15060161     0.07400
C1993       C  0.37924330  0.91614471  0.08955101    -0.22200
C1994       C  0.36409122  0.90337179  0.08943471     0.09700
C1995       C  0.34952725  0.90552075  0.07594188     0.10100
C1996       C  0.35058048  0.92035390  0.06267123    -0.17100
C1997       C  0.36581228  0.93325549  0.06262118    -0.27600
C1998       C  0.38020391  0.93125532  0.07662992     0.18500
C1999       C  0.36347526  0.88836910  0.10417151     0.12400
C2000       C  0.33299068  0.89203726  0.07546775    -0.11900
H2001       H  0.33952615  0.92170977  0.05209370     0.12700
C2002       C  0.39637653  0.94499219  0.07928588    -0.22700
H2003       H  0.39021312  0.91458547  0.10020919     0.08400
C2004       C  0.37361651  0.87127035  0.10219400     0.04700
C2005       C  0.37322329  0.85788608  0.11695069    -0.20000
C2006       C  0.36302936  0.86124157  0.13374986    -0.12300
C2007       C  0.35250272  0.87830880  0.13546969     0.13400
C2008       C  0.35296624  0.89164579  0.12067022    -0.22700
C2009       C  0.38473704  0.86714598  0.08445574    -0.05800
H2010       H  0.38107019  0.84476698  0.11542194     0.14900
C2011       C  0.34009344  0.88237258  0.15236575    -0.16000
H2012       H  0.34511470  0.90479429  0.12196120     0.09300
H2013       H  0.41000206  0.93774499  0.07621241     0.07100
H2014       H  0.39658444  0.94996072  0.09421831     0.08300
H2015       H  0.39538466  0.95783713  0.07047069     0.07400
H2016       H  0.32518522  0.89268635  0.08910919     0.02200
H2017       H  0.33817283  0.87735695  0.07317726     0.02700
H2018       H  0.32291800  0.89556763  0.06389789     0.06200
H2019       H  0.39169712  0.85303858  0.08508616     0.05200
H2020       H  0.39591453  0.87804469  0.08250262    -0.00600
H2021       H  0.37511573  0.86732930  0.07200758     0.00900
H2022       H  0.34891386  0.88501791  0.16505784     0.04600
H2023       H  0.33033172  0.87029845  0.15493037     0.06500
H2024       H  0.33129482  0.89524366  0.15015432     0.07400
C2025       C  0.09212612  0.89430160  0.40007639    -0.22200
C2026       C  0.07715762  0.89060136  0.41258466     0.09700
C2027       C  0.07680768  0.87332599  0.42266396     0.10100
C2028       C  0.09134337  0.86000447  0.41976011    -0.17100
C2029       C  0.10633139  0.86360800  0.40713786    -0.27600
C2030       C  0.10673791  0.88107823  0.39720734     0.18500
C2031       C  0.06151560  0.90463887  0.41393174     0.12400
C2032       C  0.06113708  0.86898972  0.43649099    -0.11900
H2033       H  0.09095605  0.84662173  0.42730525     0.12700
C2034       C  0.12186931  0.88557114  0.38281827    -0.22700
H2035       H  0.09214255  0.90751724  0.39222680     0.08400
C2036       C  0.06370595  0.92200310  0.42363087     0.04700
C2037       C  0.04902297  0.93548532  0.42303046    -0.20000
C2038       C  0.03229088  0.93201481  0.41282965    -0.12300
C2039       C  0.02974040  0.91419077  0.40396379     0.13400
C2040       C  0.04449292  0.90085917  0.40442365    -0.22700
C2041       C  0.08155741  0.92630691  0.43450367    -0.05800
H2042       H  0.05086252  0.94903970  0.43002009     0.14900
C2043       C  0.01152556  0.90852481  0.39431939    -0.16000
H2044       H  0.04275077  0.88741589  0.39718539     0.09300
H2045       H  0.13576428  0.88720800  0.38992478     0.07100
H2046       H  0.11892009  0.89907152  0.37526599     0.08300
H2047       H  0.12263683  0.87411774  0.37206289     0.07400
H2048       H  0.04730463  0.86866239  0.42901900     0.02200
H2049       H  0.06073096  0.88006311  0.44765764     0.02700
H2050       H  0.06322318  0.85503382  0.44347923     0.06200
H2051       H  0.08081908  0.94034851  0.44157358     0.05200
H2052       H  0.09390113  0.92641817  0.42476074    -0.00600
H2053       H  0.08378508  0.91533303  0.44556710     0.00900
H2054       H  0.01420441  0.90602704  0.37902275     0.04600
H2055       H  0.00015902  0.91925201  0.39573956     0.06500
H2056       H  0.00612934  0.89521689  0.40077454     0.07400
C2057       C  0.07707960  0.59985307  0.11728126    -0.22200
C2058       C  0.07671990  0.58360669  0.10590242     0.09700
C2059       C  0.09103856  0.56979736  0.10785155     0.10100
C2060       C  0.10527706  0.57238540  0.12149357    -0.17100
C2061       C  0.10542596  0.58843180  0.13321431    -0.27600
C2062       C  0.09137332  0.60257477  0.13081065     0.18500
C2063       C  0.06140316  0.58159391  0.09174157     0.12400
C2064       C  0.09116156  0.55230271  0.09564222    -0.11900
H2065       H  0.11614490  0.56166841  0.12328448     0.12700
C2066       C  0.09132892  0.62096928  0.14168362    -0.22700
H2067       H  0.06622574  0.61058398  0.11543653     0.08400
C2068       C  0.04385339  0.57324635  0.09644444     0.04700
C2069       C  0.02962285  0.57202760  0.08258610    -0.20000
C2070       C  0.03253374  0.57923876  0.06428425    -0.12300
C2071       C  0.05029945  0.58724515  0.05949478     0.13400
C2072       C  0.06447525  0.58841408  0.07336260    -0.22700
C2073       C  0.04012720  0.56586214  0.11612285    -0.05800
H2074       H  0.01600756  0.56586370  0.08616491     0.14900
C2075       C  0.05500765  0.59422945  0.03984647    -0.16000
H2076       H  0.07807098  0.59464345  0.06980785     0.09300
H2077       H  0.07826589  0.62189983  0.15040411     0.07100
H2078       H  0.09153707  0.63302490  0.13155703     0.08300
H2079       H  0.10376350  0.62264535  0.15109288     0.07400
H2080       H  0.09224076  0.55641257  0.08049395     0.02200
H2081       H  0.07788419  0.54415967  0.09785512     0.02700
H2082       H  0.10331266  0.54289206  0.09905753     0.06200
H2083       H  0.02567115  0.55976793  0.11742362     0.05200
H2084       H  0.04146128  0.57758243  0.12652850    -0.00600
H2085       H  0.05053397  0.55460612  0.11966639     0.00900
H2086       H  0.05821644  0.60962523  0.04035088     0.04600
H2087       H  0.04344356  0.59192306  0.02949615     0.06500
H2088       H  0.06767993  0.58658614  0.03449198     0.07400
C2089       C  0.57462481  0.87176523  0.62351995    -0.22200
C2090       C  0.57532113  0.85907543  0.60825370     0.09700
C2091       C  0.59089866  0.84664905  0.60656790     0.10100
C2092       C  0.60533671  0.84705413  0.62028998    -0.17100
C2093       C  0.60461346  0.85956776  0.63577484    -0.27600
C2094       C  0.58914213  0.87234888  0.63719026     0.18500
C2095       C  0.55970395  0.85907685  0.59406100     0.12400
C2096       C  0.59210124  0.83273057  0.59043533    -0.11900
H2097       H  0.61708595  0.83722649  0.61912512     0.12700
C2098       C  0.58774902  0.88730878  0.65236525    -0.22700
H2099       H  0.56276856  0.88148259  0.62463063     0.08400
C2100       C  0.54275038  0.84890453  0.59712854     0.04700
C2101       C  0.52869552  0.84871551  0.58297746    -0.20000
C2102       C  0.53117787  0.85849303  0.56580496    -0.12300
C2103       C  0.54839294  0.86837707  0.56260691     0.13400
C2104       C  0.56226765  0.86876521  0.57690254    -0.22700
C2105       C  0.53962761  0.83808017  0.61525518    -0.05800
H2106       H  0.51564263  0.84096869  0.58536226     0.14900
C2107       C  0.55314007  0.87782955  0.54402165    -0.16000
H2108       H  0.57545135  0.87627476  0.57444315     0.09300
H2109       H  0.57513113  0.88453854  0.66134916     0.07100
H2110       H  0.58617396  0.90145125  0.64562583     0.08300
H2111       H  0.60043064  0.88803616  0.66154922     0.07400
H2112       H  0.59243948  0.84046019  0.57673619     0.02200
H2113       H  0.57958276  0.82319882  0.59070007     0.02700
H2114       H  0.60505795  0.82383551  0.59134707     0.06200
H2115       H  0.52570339  0.83073895  0.61534355     0.05200
H2116       H  0.54003308  0.84796217  0.62748263    -0.00600
H2117       H  0.55090419  0.82723850  0.61698801     0.00900
H2118       H  0.55502178  0.89328444  0.54629263     0.04600
H2119       H  0.54225254  0.87570080  0.53294329     0.06500
H2120       H  0.56658528  0.87185330  0.53842552     0.07400
C2121       C  0.58951190  0.55510219  0.90947027    -0.22200
C2122       C  0.57434358  0.55674518  0.89678527     0.09700
C2123       C  0.57311906  0.57274313  0.88486705     0.10100
C2124       C  0.58733715  0.58664961  0.88567189    -0.17100
C2125       C  0.60278398  0.58495494  0.89814405    -0.27600
C2126       C  0.60374714  0.56901979  0.91037400     0.18500
C2127       C  0.55943802  0.54193566  0.89676465     0.12400
C2128       C  0.55674516  0.57514045  0.87137624    -0.11900
H2129       H  0.58646708  0.59884449  0.87636723     0.12700
C2130       C  0.61915151  0.56694320  0.92502298    -0.22700
H2131       H  0.59010633  0.54290626  0.91880404     0.08400
C2132       C  0.56060514  0.52582838  0.88498463     0.04700
C2133       C  0.54575949  0.51253523  0.88509185    -0.20000
C2134       C  0.52993202  0.51485848  0.89694736    -0.12300
C2135       C  0.52889382  0.53102258  0.90880371     0.13400
C2136       C  0.54368243  0.54432889  0.90856553    -0.22700
C2137       C  0.57752846  0.52269828  0.87237124    -0.05800
H2138       H  0.54661529  0.50014630  0.87605549     0.14900
C2139       C  0.51179556  0.53489785  0.92093991    -0.16000
H2140       H  0.54287098  0.55683623  0.91744626     0.09300
H2141       H  0.63300512  0.56451036  0.91808340     0.07100
H2142       H  0.61652878  0.55465995  0.93452181     0.08300
H2143       H  0.61982660  0.57987783  0.93395159     0.07400
H2144       H  0.54323873  0.57561113  0.87943367     0.02200
H2145       H  0.55631830  0.56307116  0.86130476     0.02700
H2146       H  0.55794133  0.58844603  0.86304335     0.06200
H2147       H  0.57623314  0.50937970  0.86408840     0.05200
H2148       H  0.59056894  0.52177746  0.88112817    -0.00600
H2149       H  0.57894300  0.53466215  0.86225086     0.00900
H2150       H  0.51009706  0.52363744  0.93178047     0.04600
H2151       H  0.49907254  0.53550764  0.91174413     0.06500
H2152       H  0.51296184  0.54864914  0.92850772     0.07400
C2153       C  0.84027209  0.54404051  0.58164865    -0.22200
C2154       C  0.85206568  0.53972796  0.59703034     0.09700
C2155       C  0.86241327  0.52263730  0.59707032     0.10100
C2156       C  0.86078557  0.51022499  0.58161083    -0.17100
C2157       C  0.84897809  0.51447390  0.56614237    -0.27600
C2158       C  0.83877818  0.53179174  0.56604427     0.18500
C2159       C  0.85394160  0.55373851  0.61255974     0.12400
C2160       C  0.87516082  0.51754975  0.61341791    -0.11900
H2161       H  0.86863538  0.49701301  0.58168074     0.12700
C2162       C  0.82698413  0.53838082  0.54947348    -0.22700
H2163       H  0.83257405  0.55734718  0.58159452     0.08400
C2164       C  0.86718057  0.56866881  0.61146306     0.04700
C2165       C  0.86807345  0.58202937  0.62615995    -0.20000
C2166       C  0.85613397  0.58074610  0.64202440    -0.12300
C2167       C  0.84284533  0.56570394  0.64310790     0.13400
C2168       C  0.84195633  0.55237148  0.62832403    -0.22700
C2169       C  0.88027175  0.57054010  0.59470432    -0.05800
H2170       H  0.87815824  0.59358650  0.62526293     0.14900
C2171       C  0.82894965  0.56407952  0.65924326    -0.16000
H2172       H  0.83172567  0.54092320  0.62892476     0.09300
H2173       H  0.83203109  0.55253691  0.54477899     0.07100
H2174       H  0.81192558  0.53958156  0.55387652     0.08300
H2175       H  0.82784546  0.52892987  0.53700388     0.07400
H2176       H  0.86670582  0.51666715  0.62665633     0.02200
H2177       H  0.88629948  0.52852504  0.61512433     0.02700
H2178       H  0.88225588  0.50367359  0.61119480     0.06200
H2179       H  0.88980565  0.58298704  0.59609833     0.05200
H2180       H  0.87184633  0.57228746  0.58153435    -0.00600
H2181       H  0.88920642  0.55765143  0.59345529     0.00900
H2182       H  0.81866278  0.55239023  0.65692272     0.04600
H2183       H  0.82080231  0.57746848  0.66066624     0.06500
H2184       H  0.83653584  0.56099758  0.67263222     0.07400
C2185       C  0.90405007  0.59714496  0.93148700    -0.22200
C2186       C  0.90274105  0.58142373  0.94353521     0.09700
C2187       C  0.88750885  0.56863064  0.94149256     0.10100
C2188       C  0.87399417  0.57174869  0.92718026    -0.17100
C2189       C  0.87548314  0.58729745  0.91484081    -0.27600
C2190       C  0.89058690  0.60029791  0.91718131     0.18500
C2191       C  0.91724281  0.57912110  0.95855142     0.12400
C2192       C  0.88549375  0.55180994  0.95448155    -0.11900
H2193       H  0.86229367  0.56193660  0.92549876     0.12700
C2194       C  0.89215884  0.61793488  0.90522339    -0.22700
H2195       H  0.91563425  0.60705713  0.93340090     0.08400
C2196       C  0.93416769  0.56896205  0.95532397     0.04700
C2197       C  0.94797865  0.56818608  0.96964402    -0.20000
C2198       C  0.94537255  0.57767519  0.98691799    -0.12300
C2199       C  0.92818427  0.58747991  0.99029862     0.13400
C2200       C  0.91438186  0.58813657  0.97599994    -0.22700
C2201       C  0.93782522  0.55937235  0.93661798    -0.05800
H2202       H  0.96115011  0.56068618  0.96711464     0.14900
C2203       C  0.92370105  0.59703354  0.00888720    -0.16000
H2204       H  0.90130548  0.59584112  0.97843094     0.09300
H2205       H  0.89470762  0.61411712  0.89021299     0.07100
H2206       H  0.90410498  0.62707828  0.90985997     0.08300
H2207       H  0.87890144  0.62634014  0.90635736     0.07400
H2208       H  0.88415592  0.55672680  0.96936207     0.02200
H2209       H  0.89813149  0.54253131  0.95324782     0.02700
H2210       H  0.87276579  0.54323838  0.95097736     0.06200
H2211       H  0.95181247  0.55214971  0.93640798     0.05200
H2212       H  0.93764451  0.57004588  0.92505338    -0.00600
H2213       H  0.92671466  0.54859446  0.93386111     0.00900
H2214       H  0.92181776  0.61248245  0.00654659     0.04600
H2215       H  0.93480584  0.59495970  0.01978093     0.06500
H2216       H  0.91032712  0.59111806  0.01471092     0.07400
C2217       C  0.61248489  0.89088786  0.92412454    -0.22200
C2218       C  0.62538577  0.88899198  0.93909790     0.09700
C2219       C  0.63753499  0.87311520  0.93964463     0.10100
C2220       C  0.63653465  0.85949528  0.92513592    -0.17100
C2221       C  0.62368702  0.86137607  0.91002278    -0.27600
C2222       C  0.61129442  0.87721129  0.90969128     0.18500
C2223       C  0.62557291  0.90356004  0.95431627     0.12400
C2224       C  0.65160684  0.87062988  0.95549966    -0.11900
H2225       H  0.64603984  0.84742804  0.92545001     0.12700
C2226       C  0.59605471  0.87982264  0.89494708    -0.22700
H2227       H  0.60300046  0.90298273  0.92389783     0.08400
C2228       C  0.63680405  0.92003600  0.95291685     0.04700
C2229       C  0.63655073  0.93335350  0.96773111    -0.20000
C2230       C  0.62518342  0.93070434  0.98388874    -0.12300
C2231       C  0.61414658  0.91395714  0.98538215     0.13400
C2232       C  0.61435265  0.90074435  0.97046639    -0.22700
C2233       C  0.64895043  0.92358984  0.93572938    -0.05800
H2234       H  0.64504142  0.94610560  0.96653924     0.14900
C2235       C  0.60264197  0.90902446  0.00270356    -0.16000
H2236       H  0.60590814  0.88794843  0.97157390     0.09300
H2237       H  0.59896724  0.89284892  0.88660735     0.07100
H2238       H  0.58210802  0.88138130  0.90207566     0.08300
H2239       H  0.59477207  0.86770703  0.88509640     0.07400
H2240       H  0.64402166  0.86976092  0.96925418     0.02200
H2241       H  0.66149432  0.88286203  0.95581538     0.02700
H2242       H  0.66011316  0.85749872  0.95375638     0.06200
H2243       H  0.65686214  0.93715104  0.93687092     0.05200
H2244       H  0.63989643  0.92427182  0.92288125    -0.00600
H2245       H  0.65939786  0.91194516  0.93407595     0.00900
H2246       H  0.58739092  0.90837767  0.99888404     0.04600
H2247       H  0.60445060  0.91916591  0.01451301     0.06500
H2248       H  0.60711165  0.89492047  0.00809146     0.07400
C2249       C  0.91580025  0.91938026  0.64687885    -0.22200
C2250       C  0.91828523  0.90256465  0.65712894     0.09700
C2251       C  0.93373069  0.90083289  0.66969800     0.10100
C2252       C  0.94663225  0.91591031  0.67143715    -0.17100
C2253       C  0.94444806  0.93261285  0.66080404    -0.27600
C2254       C  0.92850412  0.93455476  0.64873873     0.18500
C2255       C  0.90434881  0.88706954  0.65453506     0.12400
C2256       C  0.93663452  0.88302859  0.68111190    -0.11900
H2257       H  0.95876998  0.91445106  0.68074353     0.12700
C2258       C  0.92397593  0.95257344  0.63815096    -0.22700
H2259       H  0.90368483  0.92075513  0.63751934     0.08400
C2260       C  0.88711081  0.88682038  0.66461555     0.04700
C2261       C  0.87399951  0.87227716  0.66115808    -0.20000
C2262       C  0.87769097  0.85794349  0.64782610    -0.12300
C2263       C  0.89493110  0.85839700  0.63751721     0.13400
C2264       C  0.90810830  0.87287216  0.64117515    -0.22700
C2265       C  0.88263459  0.90184561  0.67909839    -0.05800
H2266       H  0.86087863  0.87194834  0.66913891     0.14900
C2267       C  0.89962943  0.84447491  0.62202187    -0.16000
H2268       H  0.92127237  0.87332637  0.63325426     0.09300
H2269       H  0.90939474  0.95724789  0.64180130     0.07100
H2270       H  0.92471715  0.94992922  0.62266287     0.08300
H2271       H  0.93355246  0.96446368  0.64172504     0.07400
H2272       H  0.93848033  0.87075565  0.67144872     0.02200
H2273       H  0.92412978  0.88051022  0.69032212     0.02700
H2274       H  0.94938190  0.88400362  0.69029394     0.06200
H2275       H  0.86860453  0.89947055  0.68583067     0.05200
H2276       H  0.88242168  0.91599668  0.67221790    -0.00600
H2277       H  0.89357409  0.90175439  0.69040335     0.00900
H2278       H  0.90265880  0.85231428  0.60870952     0.04600
H2279       H  0.88795409  0.83448605  0.61890797     0.06500
H2280       H  0.91239901  0.83621047  0.62605938     0.07400
C2281       C  0.41787243  0.84457381  0.57887183    -0.22200
C2282       C  0.41852682  0.85844076  0.59304560     0.09700
C2283       C  0.43287507  0.87234042  0.59255009     0.10100
C2284       C  0.44656838  0.87177341  0.57809265    -0.17100
C2285       C  0.44620750  0.85766507  0.56401977    -0.27600
C2286       C  0.43121003  0.84423819  0.56410064     0.18500
C2287       C  0.40398458  0.85807829  0.60825425     0.12400
C2288       C  0.43371824  0.88772386  0.60730672    -0.11900
H2289       H  0.45784053  0.88221120  0.57799711     0.12700
C2290       C  0.42811044  0.82993756  0.54851667    -0.22700
H2291       H  0.40657855  0.83414878  0.57912282     0.08400
C2292       C  0.38586048  0.86605202  0.60561858     0.04700
C2293       C  0.37237051  0.86475530  0.62021861    -0.20000
C2294       C  0.37650736  0.85562773  0.63746971    -0.12300
C2295       C  0.39481969  0.84761052  0.64001815     0.13400
C2296       C  0.40827276  0.84902005  0.62537150    -0.22700
C2297       C  0.38076032  0.87583244  0.58734106    -0.05800
H2298       H  0.35843011  0.87084519  0.61809252     0.14900
C2299       C  0.40020997  0.83674602  0.65759790    -0.16000
H2300       H  0.42221397  0.84280475  0.62715580     0.09300
H2301       H  0.41333940  0.83114883  0.54320525     0.07100
H2302       H  0.43026688  0.81540900  0.55417162     0.08300
H2303       H  0.43740792  0.83206875  0.53608345     0.07400
H2304       H  0.43550973  0.88132770  0.62156924     0.02200
H2305       H  0.42039094  0.89608755  0.60702154     0.02700
H2306       H  0.44574062  0.89757066  0.60479015     0.06200
H2307       H  0.36604447  0.88141514  0.58761364     0.05200
H2308       H  0.38191633  0.86569321  0.57537402    -0.00600
H2309       H  0.39054714  0.88790076  0.58485245     0.00900
H2310       H  0.41415724  0.82961685  0.65599937     0.04600
H2311       H  0.38950600  0.82560827  0.66059827     0.06500
H2312       H  0.40152341  0.84653891  0.66977609     0.07400
C2313       C  0.09104710  0.57141763  0.60702020    -0.22200
C2314       C  0.10367796  0.55608770  0.60644070     0.09700
C2315       C  0.11709066  0.55391597  0.62111636     0.10100
C2316       C  0.11788560  0.56738615  0.63579580    -0.17100
C2317       C  0.10560075  0.58308088  0.63617318    -0.27600
C2318       C  0.09161796  0.58477744  0.62181597     0.18500
C2319       C  0.10292033  0.54266762  0.59016157     0.12400
C2320       C  0.13062004  0.53740334  0.62119678    -0.11900
H2321       H  0.12848696  0.56589408  0.64681027     0.12700
C2322       C  0.07658292  0.59995389  0.62195332    -0.22700
H2323       H  0.08053606  0.57287870  0.59590488     0.08400
C2324       C  0.09010965  0.52731481  0.58968077     0.04700
C2325       C  0.09043610  0.51470807  0.57421760    -0.20000
C2326       C  0.10323151  0.51711675  0.55910928    -0.12300
C2327       C  0.11546680  0.53311150  0.55925814     0.13400
C2328       C  0.11536802  0.54539822  0.57493827    -0.22700
C2329       C  0.07633113  0.52408634  0.60564859    -0.05800
H2330       H  0.08092947  0.50264103  0.57414842     0.14900
C2331       C  0.12823990  0.53830575  0.54291485    -0.16000
H2332       H  0.12492408  0.55743568  0.57517052     0.09300
H2333       H  0.06237023  0.59321214  0.62137462     0.07100
H2334       H  0.07831969  0.60922832  0.60935930     0.08300
H2335       H  0.07685987  0.60884498  0.63485672     0.07400
H2336       H  0.13958253  0.53778762  0.60827445     0.02200
H2337       H  0.12252455  0.52391155  0.62148210     0.02700
H2338       H  0.14011226  0.53768936  0.63374690     0.06200
H2339       H  0.06740925  0.51135576  0.60317833     0.05200
H2340       H  0.06681447  0.53653863  0.60704567    -0.00600
H2341       H  0.08418936  0.52203561  0.61912376     0.00900
H2342       H  0.12548322  0.55321921  0.53868032     0.04600
H2343       H  0.12589647  0.52961327  0.53009387     0.06500
H2344       H  0.14328100  0.53701447  0.54735337     0.07400
C2345       C  0.40434296  0.57177603  0.87581629    -0.22200
C2346       C  0.40212773  0.55753381  0.88951808     0.09700
C2347       C  0.38575513  0.55741621  0.90102586     0.10100
C2348       C  0.37204080  0.57164421  0.89864110    -0.17100
C2349       C  0.37433530  0.58603692  0.88509556    -0.27600
C2350       C  0.39055402  0.58592648  0.87330335     0.18500
C2351       C  0.41697518  0.54270039  0.89129155     0.12400
C2352       C  0.38254539  0.54208341  0.91554448    -0.11900
H2353       H  0.35948132  0.57161432  0.90748936     0.12700
C2354       C  0.39297969  0.60007018  0.85747699    -0.22700
H2355       H  0.41687110  0.57168335  0.86692404     0.08400
C2356       C  0.41948579  0.52872458  0.87723166     0.04700
C2357       C  0.43406656  0.51535494  0.87925195    -0.20000
C2358       C  0.44596266  0.51519026  0.89525812    -0.12300
C2359       C  0.44285590  0.52877703  0.90975627     0.13400
C2360       C  0.42867681  0.54258563  0.90734407    -0.22700
C2361       C  0.40651776  0.52761306  0.86029620    -0.05800
H2362       H  0.43600332  0.50475389  0.86830959     0.14900
C2363       C  0.45439603  0.52906685  0.92770664    -0.16000
H2364       H  0.42658981  0.55333814  0.91811117     0.09300
H2365       H  0.40581506  0.59704113  0.84888064     0.07100
H2366       H  0.39452029  0.61456231  0.86330531     0.08300
H2367       H  0.38050202  0.59953240  0.84790219     0.07400
H2368       H  0.39383698  0.54254432  0.92646864     0.02200
H2369       H  0.38267280  0.52800406  0.90852284     0.02700
H2370       H  0.36870827  0.54378195  0.92285367     0.06200
H2371       H  0.41001365  0.51535267  0.85106830     0.05200
H2372       H  0.40777627  0.54067073  0.85163042    -0.00600
H2373       H  0.39162813  0.52598383  0.86512843     0.00900
H2374       H  0.45045646  0.54113116  0.93701615     0.04600
H2375       H  0.46962299  0.53044946  0.92427154     0.06500
H2376       H  0.45197754  0.51582278  0.93584151     0.07400
C2377       C  0.06036181  0.56580954  0.97128674    -0.22200
C2378       C  0.05793982  0.57696007  0.95502321     0.09700
C2379       C  0.04130176  0.58790489  0.95305001     0.10100
C2380       C  0.02754040  0.58756735  0.96747100    -0.17100
C2381       C  0.02992083  0.57644844  0.98382984    -0.27600
C2382       C  0.04673809  0.56557468  0.98583984     0.18500
C2383       C  0.07320973  0.57739054  0.94044900     0.12400
C2384       C  0.03818510  0.60010381  0.93580833    -0.11900
H2385       H  0.01477142  0.59597600  0.96592468     0.12700
C2386       C  0.05139788  0.55430289  0.00340148    -0.22700
H2387       H  0.07324093  0.55756464  0.97284632     0.08400
C2388       C  0.08959952  0.58862453  0.94276510     0.04700
C2389       C  0.10322176  0.58928715  0.92821413    -0.20000
C2390       C  0.10087373  0.57900750  0.91129870    -0.12300
C2391       C  0.08476969  0.56709841  0.90939402     0.13400
C2392       C  0.07113499  0.56655076  0.92395291    -0.22700
C2393       C  0.09252885  0.60017645  0.96046677    -0.05800
H2394       H  0.11556754  0.59826444  0.92989271     0.14900
C2395       C  0.08214326  0.55430740  0.89250014    -0.16000
H2396       H  0.05868321  0.55767863  0.92244455     0.09300
H2397       H  0.06531913  0.55898774  0.00905300     0.07100
H2398       H  0.05232145  0.53902458  0.99975895     0.08300
H2399       H  0.04099030  0.55607373  0.01497815     0.07400
H2400       H  0.03791088  0.59111820  0.92290628     0.02200
H2401       H  0.04982874  0.61061632  0.93455547     0.02700
H2402       H  0.02455327  0.60794054  0.93658319     0.06200
H2403       H  0.10596169  0.60836574  0.95993641     0.05200
H2404       H  0.09311169  0.59067585  0.97299581    -0.00600
H2405       H  0.08063995  0.61033859  0.96221201     0.00900
H2406       H  0.06993800  0.54455475  0.89444886     0.04600
H2407       H  0.09502361  0.54551710  0.89038524     0.06500
H2408       H  0.07923773  0.56274937  0.87961002     0.07400
C2409       C  0.06949638  0.87316699  0.67463666    -0.22200
C2410       C  0.07024365  0.88761050  0.66104601     0.09700
C2411       C  0.08517087  0.88786632  0.64774435     0.10100
C2412       C  0.09896416  0.87348035  0.64822113    -0.17100
C2413       C  0.09807742  0.85874552  0.66159952    -0.27600
C2414       C  0.08323839  0.85874778  0.67515194     0.18500
C2415       C  0.05545217  0.90257079  0.66134125     0.12400
C2416       C  0.08649272  0.90332053  0.63307348    -0.11900
H2417       H  0.11040734  0.87362149  0.63797366     0.12700
C2418       C  0.08223055  0.84418632  0.69075244    -0.22700
H2419       H  0.05812297  0.87327187  0.68496628     0.08400
C2420       C  0.03817476  0.90042286  0.65151158     0.04700
C2421       C  0.02461523  0.91499491  0.65225720    -0.20000
C2422       C  0.02783434  0.93154268  0.66283138    -0.12300
C2423       C  0.04525922  0.93372486  0.67257785     0.13400
C2424       C  0.05876719  0.91912031  0.67179590    -0.22700
C2425       C  0.03405610  0.88272590  0.64032479    -0.05800
H2426       H  0.01130894  0.91336892  0.64474802     0.14900
C2427       C  0.05048166  0.95144292  0.68332333    -0.16000
H2428       H  0.07212209  0.92074432  0.67922561     0.09300
H2429       H  0.07932036  0.82997646  0.68477746     0.07100
H2430       H  0.07068391  0.84738471  0.70096277     0.08300
H2431       H  0.09579355  0.84394502  0.69872758     0.07400
H2432       H  0.08776529  0.91730323  0.64016772     0.02200
H2433       H  0.07358145  0.90325928  0.62408651     0.02700
H2434       H  0.09900188  0.90141517  0.62371201     0.06200
H2435       H  0.01988963  0.88331940  0.63348610     0.05200
H2436       H  0.03437350  0.87021144  0.64986428    -0.00600
H2437       H  0.04487675  0.88090353  0.62905562     0.00900
H2438       H  0.05259672  0.94793177  0.69851320     0.04600
H2439       H  0.03970834  0.96279642  0.68229558     0.06500
H2440       H  0.06391971  0.95726949  0.67756395     0.07400
C2441       C  0.38020685  0.88815618  0.92366075    -0.22200
C2442       C  0.36567723  0.88861068  0.93719762     0.09700
C2443       C  0.35123994  0.87478958  0.93665538     0.10100
C2444       C  0.35174060  0.86067545  0.92262513    -0.17100
C2445       C  0.36613937  0.86030790  0.90888652    -0.27600
C2446       C  0.38060122  0.87419396  0.90945476     0.18500
C2447       C  0.36595846  0.90361587  0.95192175     0.12400
C2448       C  0.33527996  0.87503393  0.95082512    -0.11900
H2449       H  0.34063432  0.85006964  0.92215065     0.12700
C2450       C  0.39680418  0.87397402  0.89555415    -0.22700
H2451       H  0.39129934  0.89877072  0.92427113     0.08400
C2452       C  0.37596448  0.90117737  0.96906499     0.04700
C2453       C  0.37600356  0.91583575  0.98253178    -0.20000
C2454       C  0.36602330  0.93274688  0.97934374    -0.12300
C2455       C  0.35606730  0.93521505  0.96211343     0.13400
C2456       C  0.35619867  0.92060131  0.94857615    -0.22700
C2457       C  0.38651430  0.88306950  0.97313749    -0.05800
H2458       H  0.38363930  0.91399783  0.99573621     0.14900
C2459       C  0.34586398  0.95345938  0.95768606    -0.16000
H2460       H  0.34868431  0.92240491  0.93529966     0.09300
H2461       H  0.40733815  0.88524059  0.89870266     0.07100
H2462       H  0.39147284  0.87640602  0.88098292     0.08300
H2463       H  0.40418141  0.86008721  0.89620962     0.07400
H2464       H  0.32737149  0.88859076  0.94966873     0.02200
H2465       H  0.34104158  0.87364089  0.96539307     0.02700
H2466       H  0.32515040  0.86322967  0.94841242     0.06200
H2467       H  0.39350882  0.88343230  0.98723159     0.05200
H2468       H  0.39760509  0.88080655  0.96221345    -0.00600
H2469       H  0.37652552  0.87091682  0.97295407     0.00900
H2470       H  0.33961722  0.95328968  0.94324048     0.04600
H2471       H  0.35593508  0.96553154  0.95849337     0.06500
H2472       H  0.33416094  0.95571186  0.96793810     0.07400
C2473       C  0.12808897  0.37567178  0.59871809    -0.22200
C2474       C  0.11330304  0.38896379  0.59874671     0.09700
C2475       C  0.09945542  0.38816995  0.61318152     0.10100
C2476       C  0.10066084  0.37406338  0.62721684    -0.17100
C2477       C  0.11526588  0.36055688  0.62706010    -0.27600
C2478       C  0.12930418  0.36152133  0.61274162     0.18500
C2479       C  0.11269637  0.40385537  0.58378369     0.12400
C2480       C  0.08355541  0.40239802  0.61391510    -0.11900
H2481       H  0.09005597  0.37347249  0.63831570     0.12700
C2482       C  0.14603433  0.34824498  0.61264635    -0.22700
H2483       H  0.13879269  0.37648330  0.58773001     0.08400
C2484       C  0.12457101  0.41994356  0.58451071     0.04700
C2485       C  0.12269876  0.43418551  0.57067885    -0.20000
C2486       C  0.10908479  0.43286293  0.55619275    -0.12300
C2487       C  0.09762801  0.41638467  0.55512633     0.13400
C2488       C  0.09959008  0.40212356  0.56894740    -0.22700
C2489       C  0.13894114  0.42226813  0.60011880    -0.05800
H2490       H  0.13166965  0.44663502  0.57141443     0.14900
C2491       C  0.08375428  0.41341838  0.53916058    -0.16000
H2492       H  0.09072796  0.38958944  0.56830761     0.09300
H2493       H  0.15622903  0.35181256  0.60119382     0.07100
H2494       H  0.14123553  0.33348186  0.61028502     0.08300
H2495       H  0.15365493  0.34917311  0.62638200     0.07400
H2496       H  0.07477613  0.40129589  0.60091542     0.02200
H2497       H  0.08948480  0.41693927  0.61494883     0.02700
H2498       H  0.07417140  0.40002083  0.62632616     0.06200
H2499       H  0.14682849  0.43582972  0.59881176     0.05200
H2500       H  0.14937567  0.41050950  0.59957918    -0.00600
H2501       H  0.13168725  0.42212841  0.61408065     0.00900
H2502       H  0.07692424  0.39925345  0.53993423     0.04600
H2503       H  0.09122879  0.41444769  0.52534503     0.06500
H2504       H  0.07234606  0.42421365  0.53982372     0.07400
C2505       C  0.38829014  0.10656701  0.60449706    -0.22200
C2506       C  0.40398208  0.09497293  0.60813995     0.09700
C2507       C  0.40553134  0.08577129  0.62581954     0.10100
C2508       C  0.39133050  0.08846918  0.63952926    -0.17100
C2509       C  0.37551431  0.10005481  0.63594716    -0.27600
C2510       C  0.37403712  0.10929088  0.61814214     0.18500
C2511       C  0.41906331  0.09360248  0.59352826     0.12400
C2512       C  0.42213622  0.07308421  0.63016720    -0.11900
H2513       H  0.39256463  0.08145467  0.65314120     0.12700
C2514       C  0.35811586  0.12280879  0.61365289    -0.22700
H2515       H  0.38737740  0.11376741  0.59095159     0.08400
C2516       C  0.41720848  0.08176293  0.57752577     0.04700
C2517       C  0.43136066  0.08199682  0.56348828    -0.20000
C2518       C  0.44728491  0.09385591  0.56508519    -0.12300
C2519       C  0.44952260  0.10503390  0.58162072     0.13400
C2520       C  0.43522421  0.10496938  0.59544786    -0.22700
C2521       C  0.40029196  0.06894685  0.57529105    -0.05800
H2522       H  0.42977978  0.07320293  0.55099640     0.14900
C2523       C  0.46702507  0.11664455  0.58560152    -0.16000
H2524       H  0.43673047  0.11381731  0.60791936     0.09300
H2525       H  0.34454153  0.11502580  0.61253940     0.07100
H2526       H  0.36037409  0.13011084  0.59988617     0.08300
H2527       H  0.35711524  0.13384355  0.62481831     0.07400
H2528       H  0.43550986  0.08133334  0.62943566     0.02200
H2529       H  0.42271363  0.06134910  0.61970681     0.02700
H2530       H  0.42105888  0.06678731  0.64455585     0.06200
H2531       H  0.40113743  0.06044034  0.56207961     0.05200
H2532       H  0.38711405  0.07752297  0.57475250    -0.00600
H2533       H  0.39951867  0.05902182  0.58748353     0.00900
H2534       H  0.46319750  0.13189325  0.58626187     0.04600
H2535       H  0.47836187  0.11475027  0.57493308     0.06500
H2536       H  0.47308380  0.11232727  0.59947471     0.07400
C2537       C  0.40320435  0.37580751  0.88352959    -0.22200
C2538       C  0.40227619  0.39080400  0.89647782     0.09700
C2539       C  0.38670258  0.39216857  0.90894371     0.10100
C2540       C  0.37244657  0.37828473  0.90833252    -0.17100
C2541       C  0.37347992  0.36304192  0.89559904    -0.27600
C2542       C  0.38896067  0.36191340  0.88285946     0.18500
C2543       C  0.41745899  0.40530604  0.89626991     0.12400
C2544       C  0.38509660  0.40835364  0.92276121    -0.11900
H2545       H  0.36047848  0.37925581  0.91791504     0.12700
C2546       C  0.39013601  0.34668603  0.86793430    -0.22700
H2547       H  0.41507510  0.37509525  0.87380187     0.08400
C2548       C  0.43367323  0.40365992  0.90782855     0.04700
C2549       C  0.44746291  0.41800535  0.90736763    -0.20000
C2550       C  0.44548902  0.43387197  0.89547831    -0.12300
C2551       C  0.42907480  0.43553827  0.88398629     0.13400
C2552       C  0.41542184  0.42107319  0.88438301    -0.22700
C2553       C  0.43646136  0.38670094  0.92050198    -0.05800
H2554       H  0.46000122  0.41670726  0.91615510     0.14900
C2555       C  0.42489283  0.45263019  0.87182287    -0.16000
H2556       H  0.40283238  0.42230091  0.87564878     0.09300
H2557       H  0.39194460  0.33260669  0.87464107     0.07100
H2558       H  0.40239555  0.34890292  0.85830947     0.08300
H2559       H  0.37705152  0.34676676  0.85919204     0.07400
H2560       H  0.38471125  0.42200461  0.91493713     0.02200
H2561       H  0.39745409  0.40833687  0.93248704     0.02700
H2562       H  0.37201925  0.40731268  0.93146016     0.06200
H2563       H  0.44994981  0.38760140  0.92856580     0.05200
H2564       H  0.43681175  0.37359082  0.91181538    -0.00600
H2565       H  0.42464353  0.38571371  0.93082994     0.00900
H2566       H  0.42460390  0.44836720  0.85668408     0.04600
H2567       H  0.43520657  0.46429816  0.87357465     0.06500
H2568       H  0.41079376  0.45846403  0.87569337     0.07400
C2569       C  0.38233138  0.03035994  0.95080228    -0.22200
C2570       C  0.36897332  0.04502229  0.95175593     0.09700
C2571       C  0.35519449  0.04485722  0.96624412     0.10100
C2572       C  0.35516098  0.03005581  0.97956476    -0.17100
C2573       C  0.36871297  0.01546835  0.97888644    -0.27600
C2574       C  0.38242335  0.01557735  0.96418057     0.18500
C2575       C  0.36938022  0.06021182  0.93718291     0.12400
C2576       C  0.34069823  0.06045837  0.96779028    -0.11900
H2577       H  0.34466075  0.03004945  0.99077742     0.12700
C2578       C  0.39677580  0.99988964  0.96205467    -0.22700
H2579       H  0.39270417  0.03049167  0.93947073     0.08400
C2580       C  0.38234649  0.07541407  0.93815699     0.04700
C2581       C  0.38180503  0.08967077  0.92422615    -0.20000
C2582       C  0.36871666  0.08895936  0.90924508    -0.12300
C2583       C  0.35560786  0.07375700  0.90842690     0.13400
C2584       C  0.35621389  0.05953859  0.92235401    -0.22700
C2585       C  0.39650484  0.07672157  0.95406866    -0.05800
H2586       H  0.39165949  0.10143293  0.92500305     0.14900
C2587       C  0.34031699  0.07285425  0.89354091    -0.16000
H2588       H  0.34619625  0.04789729  0.92184145     0.09300
H2589       H  0.40662357  0.99986074  0.97430508     0.07100
H2590       H  0.40546272  0.00165800  0.94904637     0.08300
H2591       H  0.38941661  0.98600677  0.96110983     0.07400
H2592       H  0.33180159  0.06082001  0.95482783     0.02200
H2593       H  0.34797464  0.07431115  0.96946569     0.02700
H2594       H  0.33118446  0.05837730  0.98015644     0.06200
H2595       H  0.40541651  0.08964506  0.95288835     0.05200
H2596       H  0.40601298  0.06419008  0.95380413    -0.00600
H2597       H  0.38895082  0.07719373  0.96786350     0.00900
H2598       H  0.34666136  0.07065598  0.87936037     0.04600
H2599       H  0.33194520  0.08618166  0.89363967     0.06500
H2600       H  0.33038545  0.06090997  0.89610900     0.07400
C2601       C  0.06103809  0.02326971  0.65630706    -0.22200
C2602       C  0.05803729  0.04049881  0.66568714     0.09700
C2603       C  0.04076411  0.04367339  0.67524609     0.10100
C2604       C  0.02676037  0.02951213  0.67509196    -0.17100
C2605       C  0.02958774  0.01239320  0.66536520    -0.27600
C2606       C  0.04710663  0.00908598  0.65612711     0.18500
C2607       C  0.07307513  0.05514885  0.66494397     0.12400
C2608       C  0.03712435  0.06203383  0.68548786    -0.11900
H2609       H  0.01337070  0.03197825  0.68221377     0.12700
C2610       C  0.05189005  0.99064409  0.64643445    -0.22700
H2611       H  0.07441114  0.02085015  0.64912705     0.08400
C2612       C  0.08878642  0.05469960  0.67728303     0.04700
C2613       C  0.10279604  0.06877810  0.67576176    -0.20000
C2614       C  0.10148426  0.08325225  0.66211454    -0.12300
C2615       C  0.08594841  0.08326670  0.64936080     0.13400
C2616       C  0.07181688  0.06939103  0.65118480    -0.22700
C2617       C  0.09060995  0.03948895  0.69215627    -0.05800
H2618       H  0.11468056  0.06866532  0.68549268     0.14900
C2619       C  0.08414002  0.09698814  0.63307378    -0.16000
H2620       H  0.05989093  0.06941160  0.64148777     0.09300
H2621       H  0.06506130  0.98472029  0.65269161     0.07100
H2622       H  0.05429701  0.99323763  0.63110508     0.08300
H2623       H  0.04074308  0.97971049  0.64795389     0.07400
H2624       H  0.03778440  0.07403336  0.67532692     0.02200
H2625       H  0.04799930  0.06411493  0.69666424     0.02700
H2626       H  0.02294413  0.06218327  0.69232114     0.06200
H2627       H  0.10364275  0.04130843  0.70079147     0.05200
H2628       H  0.09124104  0.02535332  0.68528475    -0.00600
H2629       H  0.07819631  0.03998729  0.70181277     0.00900
H2630       H  0.08232120  0.08895171  0.61966838     0.04600
H2631       H  0.09675037  0.10608675  0.63113497     0.06500
H2632       H  0.07151656  0.10612666  0.63524934     0.07400
C2633       C  0.06252406  0.36007398  0.96448209    -0.22200
C2634       C  0.05908469  0.36973218  0.94748241     0.09700
C2635       C  0.04255718  0.38080254  0.94552367     0.10100
C2636       C  0.02978453  0.38200362  0.96072888    -0.17100
C2637       C  0.03303313  0.37209880  0.97767678    -0.27600
C2638       C  0.04977823  0.36119990  0.97969610     0.18500
C2639       C  0.07291268  0.36783201  0.93183252     0.12400
C2640       C  0.03824642  0.39099695  0.92726533    -0.11900
H2641       H  0.01691841  0.39026657  0.95919363     0.12700
C2642       C  0.05501053  0.35107484  0.99778790    -0.22700
H2643       H  0.07533340  0.35169831  0.96592409     0.08400
C2644       C  0.08815110  0.38058977  0.92974816     0.04700
C2645       C  0.10101118  0.37804504  0.91478777    -0.20000
C2646       C  0.09897800  0.36302101  0.90190560    -0.12300
C2647       C  0.08387417  0.35000717  0.90427916     0.13400
C2648       C  0.07096683  0.35266696  0.91919207    -0.22700
C2649       C  0.09096586  0.39668683  0.94347627    -0.05800
H2650       H  0.11276455  0.38780408  0.91315008     0.14900
C2651       C  0.08179180  0.33278711  0.89182587    -0.16000
H2652       H  0.05937812  0.34276995  0.92115768     0.09300
H2653       H  0.06916566  0.35598623  0.00260694     0.07100
H2654       H  0.05565381  0.33557369  0.99515866     0.08300
H2655       H  0.04497576  0.35374320  0.00954875     0.07400
H2656       H  0.03717056  0.38058899  0.91552059     0.02200
H2657       H  0.04969545  0.40127023  0.92400101     0.02700
H2658       H  0.02465991  0.39890808  0.92806835     0.06200
H2659       H  0.10364042  0.40529166  0.93985243     0.05200
H2660       H  0.09290457  0.39097272  0.95800915    -0.00600
H2661       H  0.07841811  0.40616408  0.94330083     0.00900
H2662       H  0.07010387  0.32343819  0.89671504     0.04600
H2663       H  0.09509910  0.32438541  0.89204740     0.06500
H2664       H  0.07848037  0.33711389  0.87710563     0.07400
C2665       C  0.56856710  0.11700804  0.62014756    -0.22200
C2666       C  0.57089637  0.10261713  0.60666185     0.09700
C2667       C  0.58676723  0.09050874  0.60790668     0.10100
C2668       C  0.59961143  0.09265912  0.62300199    -0.17100
C2669       C  0.59705531  0.10670876  0.63689573    -0.27600
C2670       C  0.58149511  0.11932419  0.63517295     0.18500
C2671       C  0.55654594  0.10054724  0.59133278     0.12400
C2672       C  0.59024016  0.07546513  0.59317574    -0.11900
H2673       H  0.61171494  0.08324815  0.62400730     0.12700
C2674       C  0.57886751  0.13580196  0.64848929    -0.22700
H2675       H  0.55655524  0.12650437  0.61885621     0.08400
C2676       C  0.54081802  0.08833568  0.59332213     0.04700
C2677       C  0.52747382  0.08699045  0.57856070    -0.20000
C2678       C  0.52933947  0.09776504  0.56191493    -0.12300
C2679       C  0.54539552  0.10969089  0.55977628     0.13400
C2680       C  0.55864239  0.11106825  0.57460980    -0.22700
C2681       C  0.53794455  0.07702108  0.61119808    -0.05800
H2682       H  0.51522493  0.07786831  0.58024207     0.14900
C2683       C  0.54947136  0.12063147  0.54186248    -0.16000
H2684       H  0.57084953  0.12027249  0.57303103     0.09300
H2685       H  0.57546022  0.13064058  0.66290926     0.07100
H2686       H  0.56701934  0.14512547  0.64394630     0.08300
H2687       H  0.59196758  0.14451532  0.64887286     0.07400
H2688       H  0.59177029  0.08218096  0.57902618     0.02200
H2689       H  0.57817597  0.06538908  0.59281196     0.02700
H2690       H  0.60335441  0.06728523  0.59616952     0.06200
H2691       H  0.52487580  0.06827370  0.61052898     0.05200
H2692       H  0.53670097  0.08676154  0.62348595    -0.00600
H2693       H  0.55015570  0.06738093  0.61349269     0.00900
H2694       H  0.54913014  0.13606441  0.54491046     0.04600
H2695       H  0.53939487  0.11756560  0.53024232     0.06500
H2696       H  0.56379960  0.11682278  0.53657516     0.07400
C2697       C  0.86218795  0.39138374  0.61905410    -0.22200
C2698       C  0.84799850  0.38932513  0.60532332     0.09700
C2699       C  0.83594238  0.37336752  0.60592817     0.10100
C2700       C  0.83813939  0.36000032  0.62054181    -0.17100
C2701       C  0.85192809  0.36238130  0.63469933    -0.27600
C2702       C  0.86429229  0.37816618  0.63378161     0.18500
C2703       C  0.84617099  0.40408381  0.59043908     0.12400
C2704       C  0.82048981  0.37069492  0.59144653    -0.11900
H2705       H  0.82873444  0.34787004  0.62119473     0.12700
C2706       C  0.88016763  0.38085335  0.64781989    -0.22700
H2707       H  0.87161127  0.40349608  0.61825921     0.08400
C2708       C  0.83874354  0.42222620  0.59453674     0.04700
C2709       C  0.83805753  0.43598068  0.58016097    -0.20000
C2710       C  0.84473664  0.43202081  0.56187426    -0.12300
C2711       C  0.85160679  0.41368024  0.55761075     0.13400
C2712       C  0.85240395  0.39999539  0.57202287    -0.22700
C2713       C  0.83149538  0.42705120  0.61402880    -0.05800
H2714       H  0.83270390  0.45003854  0.58330647     0.14900
C2715       C  0.85775275  0.40791943  0.53797291    -0.16000
H2716       H  0.85797343  0.38602012  0.56888352     0.09300
H2717       H  0.87439542  0.38367854  0.66212954     0.07100
H2718       H  0.88931129  0.39308620  0.64399125     0.08300
H2719       H  0.88921197  0.36797947  0.64819043     0.07400
H2720       H  0.82675665  0.36933777  0.57709263     0.02200
H2721       H  0.81076195  0.38306494  0.59171360     0.02700
H2722       H  0.81202649  0.35772721  0.59428530     0.06200
H2723       H  0.82573980  0.44169300  0.61464292     0.05200
H2724       H  0.84315361  0.42600251  0.62452554    -0.00600
H2725       H  0.81999127  0.41708395  0.61802730     0.00900
H2726       H  0.87291510  0.40372324  0.53821106     0.04600
H2727       H  0.85593239  0.41931683  0.52732051     0.06500
H2728       H  0.84914610  0.39563169  0.53321529     0.07400
C2729       C  0.58619356  0.39078996  0.88007112    -0.22200
C2730       C  0.57274178  0.39008742  0.89465196     0.09700
C2731       C  0.57399844  0.37579158  0.90857859     0.10100
C2732       C  0.58917854  0.36291730  0.90802694    -0.17100
C2733       C  0.60310389  0.36401169  0.89385178    -0.27600
C2734       C  0.60133018  0.37785569  0.87941109     0.18500
C2735       C  0.55761667  0.40466738  0.89520673     0.12400
C2736       C  0.55924502  0.37407526  0.92391355    -0.11900
H2737       H  0.59031265  0.35206039  0.91884224     0.12700
C2738       C  0.61481816  0.37860582  0.86286859    -0.22700
H2739       H  0.58486548  0.40159357  0.86922240     0.08400
C2740       C  0.55975124  0.42139706  0.90595102     0.04700
C2741       C  0.54502608  0.43478346  0.90623875    -0.20000
C2742       C  0.52850036  0.43210586  0.89551734    -0.12300
C2743       C  0.52645962  0.41541484  0.88456986     0.13400
C2744       C  0.54103369  0.40182414  0.88465580    -0.22700
C2745       C  0.57774553  0.42528685  0.91676301    -0.05800
H2746       H  0.54662696  0.44765788  0.91446294     0.14900
C2747       C  0.50876164  0.41163383  0.87321504    -0.16000
H2748       H  0.53954931  0.38894174  0.87642546     0.09300
H2749       H  0.62921678  0.38250960  0.86774144     0.07100
H2750       H  0.61038483  0.38933251  0.85222604     0.08300
H2751       H  0.61525988  0.36459557  0.85572003     0.07400
H2752       H  0.54511526  0.37169871  0.91741168     0.02200
H2753       H  0.55879628  0.38724523  0.93248039     0.02700
H2754       H  0.56227979  0.36204062  0.93360211     0.06200
H2755       H  0.57716711  0.43911595  0.92425225     0.05200
H2756       H  0.58992930  0.42562425  0.90681040    -0.00600
H2757       H  0.58016632  0.41402799  0.92746963     0.00900
H2758       H  0.50720612  0.42242636  0.86188377     0.04600
H2759       H  0.49616837  0.41207109  0.88264894     0.06500
H2760       H  0.50918750  0.39749582  0.86631047     0.07400
C2761       C  0.91943068  0.38760431  0.96648118    -0.22200
C2762       C  0.92078157  0.37602938  0.95043650     0.09700
C2763       C  0.93637384  0.36368121  0.94843412     0.10100
C2764       C  0.95042985  0.36331128  0.96253229    -0.17100
C2765       C  0.94920756  0.37500838  0.97858752    -0.27600
C2766       C  0.93323060  0.38702355  0.98078291     0.18500
C2767       C  0.90525075  0.37649268  0.93631051     0.12400
C2768       C  0.93809054  0.35088128  0.93145194    -0.11900
H2769       H  0.96255047  0.35400732  0.96091191     0.12700
C2770       C  0.92962899  0.39869451  0.99833082    -0.22700
H2771       H  0.90720234  0.39677798  0.96810493     0.08400
C2772       C  0.88875214  0.36550303  0.93873969     0.04700
C2773       C  0.87449905  0.36612734  0.92489319    -0.20000
C2774       C  0.87622267  0.37766689  0.90872044    -0.12300
C2775       C  0.89248965  0.38932491  0.90676770     0.13400
C2776       C  0.90693435  0.38830030  0.92043792    -0.22700
C2777       C  0.88631939  0.35295140  0.95585024    -0.05800
H2778       H  0.86211723  0.35719277  0.92653516     0.14900
C2779       C  0.89483813  0.40359015  0.89103499    -0.16000
H2780       H  0.91948722  0.39703277  0.91888248     0.09300
H2781       H  0.91542120  0.39515598  0.00411484     0.07100
H2782       H  0.92992088  0.41399007  0.99463704     0.08300
H2783       H  0.93991488  0.39605963  0.00986222     0.07400
H2784       H  0.93866551  0.35953237  0.91831927     0.02200
H2785       H  0.92566182  0.34125703  0.93076324     0.02700
H2786       H  0.95110561  0.34204796  0.93209743     0.06200
H2787       H  0.87263706  0.34517652  0.95550168     0.05200
H2788       H  0.88662969  0.36167877  0.96893040    -0.00600
H2789       H  0.89795788  0.34237665  0.95641555     0.00900
H2790       H  0.89770215  0.41777248  0.89722896     0.04600
H2791       H  0.88205861  0.40511363  0.88208491     0.06500
H2792       H  0.90701083  0.39947800  0.88195555     0.07400
C2793       C  0.92167422  0.03516097  0.64796512    -0.22200
C2794       C  0.91692139  0.04346291  0.66532448     0.09700
C2795       C  0.92640645  0.03762664  0.68190609     0.10100
C2796       C  0.94044945  0.02353716  0.68072938    -0.17100
C2797       C  0.94541809  0.01509805  0.66331064    -0.27600
C2798       C  0.93579906  0.02117081  0.64663050     0.18500
C2799       C  0.90189848  0.05823087  0.66567835     0.12400
C2800       C  0.92191167  0.04648622  0.70079842    -0.11900
H2801       H  0.94765860  0.01920189  0.69357395     0.12700
C2802       C  0.93996463  0.01304629  0.62731111    -0.22700
H2803       H  0.91422046  0.03973424  0.63532844     0.08400
C2804       C  0.90524138  0.07669573  0.65883126     0.04700
C2805       C  0.89038425  0.08993672  0.65872344    -0.20000
C2806       C  0.87217405  0.08534667  0.66550796    -0.12300
C2807       C  0.86902069  0.06680082  0.67277091     0.13400
C2808       C  0.88390431  0.05351873  0.67259048    -0.22700
C2809       C  0.92460755  0.08254902  0.65198738    -0.05800
H2810       H  0.89307819  0.10401893  0.65322954     0.14900
C2811       C  0.85041490  0.06082971  0.68136524    -0.16000
H2812       H  0.88151295  0.03928065  0.67786211     0.09300
H2813       H  0.93068557  0.01922868  0.61619375     0.07100
H2814       H  0.93752484  0.99750724  0.62737717     0.08300
H2815       H  0.95482509  0.01621359  0.62323907     0.07400
H2816       H  0.90688256  0.04378013  0.70455820     0.02200
H2817       H  0.92436605  0.06201662  0.70008358     0.02700
H2818       H  0.93092085  0.04061271  0.71229434     0.06200
H2819       H  0.92494121  0.09767078  0.64761419     0.05200
H2820       H  0.92880773  0.07383214  0.63960009    -0.00600
H2821       H  0.93511883  0.08056014  0.66353058     0.00900
H2822       H  0.85154621  0.04686749  0.68856429     0.04600
H2823       H  0.83958921  0.05922242  0.67012610     0.06500
H2824       H  0.84577512  0.07131940  0.69212893     0.07400
C2825       C  0.63553846  0.07309606  0.94232834    -0.22200
C2826       C  0.62283542  0.05810607  0.93951580     0.09700
C2827       C  0.61079474  0.05828031  0.92357022     0.10100
C2828       C  0.61169317  0.07354355  0.91078428    -0.17100
C2829       C  0.62424149  0.08875227  0.91365256    -0.27600
C2830       C  0.63648575  0.08839404  0.92959127     0.18500
C2831       C  0.62248656  0.04238371  0.95351119     0.12400
C2832       C  0.59718785  0.04224352  0.91996376    -0.11900
H2833       H  0.60247406  0.07365254  0.89849872     0.12700
C2834       C  0.65119981  0.10351892  0.93288840    -0.22700
H2835       H  0.64484678  0.07272922  0.95454677     0.08400
C2836       C  0.63611111  0.02775890  0.95314911     0.04700
C2837       C  0.63582048  0.01374243  0.96729669    -0.20000
C2838       C  0.62210977  0.01388594  0.98175837    -0.12300
C2839       C  0.60828396  0.02849237  0.98192265     0.13400
C2840       C  0.60869927  0.04254844  0.96779167    -0.22700
C2841       C  0.65091734  0.02695067  0.93779639    -0.05800
H2842       H  0.64637232  0.00257647  0.96704742     0.14900
C2843       C  0.59354652  0.02989066  0.99732584    -0.16000
H2844       H  0.59836580  0.05391989  0.96799648     0.09300
H2845       H  0.66064438  0.09991308  0.94495817     0.07100
H2846       H  0.64427899  0.11716377  0.93636099     0.08300
H2847       H  0.66019136  0.10515699  0.92008001     0.07400
H2848       H  0.58703678  0.04106398  0.93192286     0.02200
H2849       H  0.60514896  0.02873786  0.91858880     0.02700
H2850       H  0.58893988  0.04446481  0.90674283     0.06200
H2851       H  0.66033889  0.01444267  0.93942974     0.05200
H2852       H  0.65985024  0.03988934  0.93828327    -0.00600
H2853       H  0.64391945  0.02602573  0.92373560     0.00900
H2854       H  0.58468704  0.04281547  0.99578237     0.04600
H2855       H  0.60056661  0.03049673  0.01139963     0.06500
H2856       H  0.58391334  0.01747871  0.99670956     0.07400
loop_ 
_geom_bond_atom_site_label_1 
_geom_bond_atom_site_label_2 
_geom_bond_distance 
_geom_bond_site_symmetry_2 
_ccdc_geom_bond_type 
N1            N2   1.322       .  A
N1            C5   1.350       .  A
N1           Cu9   2.084       .  S
N2            C3   1.342       .  A
N2           Cu8   2.067       .  S
C3            C4   1.380       .  A
C3            H6   1.082       .  S
C4            C5   1.386       .  A
C4           C76   1.470       .  S
C5            H7   1.082       .  S
Cu8          N11   2.067       .  S
Cu9          N19   2.086       .  S
Cu10         N12   2.088       .  S
Cu10         N18   2.089       .  S
N11          N12   1.322       .  A
N11          C15   1.342       .  A
N12          C13   1.351       .  A
C13          C14   1.388       .  A
C13          H16   1.082       .  S
C14          C15   1.381       .  A
C14         C134   1.474       .  S
C15          H17   1.082       .  S
N18          N19   1.324       .  A
N18          C22   1.347       .  A
N19          C20   1.346       .  A
C20          C21   1.386       .  A
C20          H23   1.080       .  S
C21          C22   1.386       .  A
C21        C2829   1.488       .  S
C22          H24   1.082       .  S
N25          N26   1.320       .  A
N25          C29   1.349       .  A
N25         Cu33   2.081       .  S
N26          C27   1.342       .  A
N26         Cu32   2.058       .  S
C27          C28   1.379       .  A
C27          H30   1.082       .  S
C28          C29   1.385       .  A
C28         C100   1.467       .  S
C29          H31   1.082       .  S
Cu32         N35   2.059       .  S
Cu33         N43   2.083       .  S
Cu34         N36   2.087       .  S
Cu34         N42   2.089       .  S
N35          N36   1.322       .  A
N35          C39   1.339       .  A
N36          C37   1.351       .  A
C37          C38   1.388       .  A
C37          H40   1.082       .  S
C38          C39   1.379       .  A
C38         C124   1.471       .  S
C39          H41   1.082       .  S
N42          N43   1.323       .  A
N42          C46   1.347       .  A
N43          C44   1.344       .  A
C44          C45   1.388       .  A
C44          H47   1.082       .  S
C45          C46   1.391       .  A
C45        C2806   1.497       .  S
C46          H48   1.077       .  S
N49          N50   1.321       .  A
N49          C53   1.348       .  A
N49         Cu57   2.077       .  S
N50          C51   1.342       .  A
N50         Cu56   2.061       .  S
C51          C52   1.380       .  A
C51          H54   1.082       .  S
C52          C53   1.385       .  A
C52          C86   1.469       .  S
C53          H55   1.082       .  S
Cu56         N59   2.061       .  S
Cu57         N67   2.079       .  S
Cu58         N60   2.082       .  S
Cu58         N66   2.085       .  S
N59          N60   1.322       .  A
N59          C63   1.340       .  A
N60          C61   1.350       .  A
C61          C62   1.387       .  A
C61          H64   1.082       .  S
C62          C63   1.378       .  A
C62         C110   1.469       .  S
C63          H65   1.082       .  S
N66          N67   1.324       .  A
N66          C70   1.346       .  A
N67          C68   1.345       .  A
C68          C69   1.385       .  A
C68          H71   1.082       .  S
C69          C70   1.387       .  A
C69        C2774   1.486       .  S
C70          H72   1.082       .  S
N73          N74   1.322       .  A
N73          C77   1.350       .  A
N73         Cu81   2.084       .  S
N74          C75   1.342       .  A
N74         Cu80   2.064       .  S
C75          C76   1.380       .  A
C75          H78   1.082       .  S
C76          C77   1.386       .  A
C77          H79   1.082       .  S
Cu80         N83   2.064       .  S
Cu81         N91   2.085       .  S
Cu82         N84   2.081       .  S
Cu82         N90   2.083       .  S
N83          N84   1.321       .  A
N83          C87   1.342       .  A
N84          C85   1.349       .  A
C85          C86   1.385       .  A
C85          H88   1.082       .  S
C86          C87   1.380       .  A
C87          H89   1.082       .  S
N90          N91   1.325       .  A
N90          C94   1.346       .  A
N91          C92   1.346       .  A
C92          C93   1.384       .  A
C92          H95   1.082       .  S
C93          C94   1.385       .  A
C93        C2733   1.483       .  S
C94          H96   1.081       .  S
N97          N98   1.322       .  A
N97         C101   1.349       .  A
N97        Cu105   2.088       .  S
N98          C99   1.342       .  A
N98        Cu104   2.062       .  S
C99         C100   1.378       .  A
C99         H102   1.082       .  S
C100        C101   1.386       .  A
C101        H103   1.082       .  S
Cu104       N107   2.061       .  S
Cu105       N115   2.090       .  S
Cu106       N108   2.076       .  S
Cu106       N114   2.077       .  S
N107        N108   1.320       .  A
N107        C111   1.340       .  A
N108        C109   1.350       .  A
C109        C110   1.386       .  A
C109        H112   1.082       .  S
C110        C111   1.380       .  A
C111        H113   1.082       .  S
N114        N115   1.324       .  A
N114        C118   1.343       .  A
N115        C116   1.348       .  A
C116        C117   1.386       .  A
C116        H119   1.082       .  S
C117        C118   1.382       .  A
C117       C2701   1.483       .  S
C118        H120   1.081       .  S
N121        N122   1.321       .  A
N121        C125   1.351       .  A
N121       Cu129   2.083       .  S
N122        C123   1.339       .  A
N122       Cu128   2.058       .  S
C123        C124   1.379       .  A
C123        H126   1.082       .  S
C124        C125   1.387       .  A
C125        H127   1.082       .  S
Cu128       N131   2.058       .  S
Cu129       N139   2.085       .  S
Cu130       N132   2.095       .  S
Cu130       N138   2.099       .  S
N131        N132   1.321       .  A
N131        C135   1.341       .  A
N132        C133   1.352       .  A
C133        C134   1.389       .  A
C133        H136   1.082       .  S
C134        C135   1.380       .  A
C135        H137   1.082       .  S
N138        N139   1.325       .  A
N138        C142   1.349       .  A
N139        C140   1.346       .  A
C140        C141   1.385       .  A
C140        H143   1.082       .  S
C141        C142   1.389       .  A
C141       C2669   1.491       .  S
C142        H144   1.080       .  S
N145        N146   1.322       .  A
N145        C149   1.348       .  A
N145       Cu153   2.077       .  S
N146        C147   1.343       .  A
N146       Cu152   2.071       .  S
C147        C148   1.381       .  A
C147        H150   1.082       .  S
C148        C149   1.384       .  A
C148        C230   1.469       .  S
C149        H151   1.082       .  S
Cu152       N155   2.071       .  S
Cu153       N163   2.078       .  S
Cu154       N156   2.079       .  S
Cu154       N162   2.080       .  S
N155        N156   1.322       .  A
N155        C159   1.343       .  A
N156        C157   1.349       .  A
C157        C158   1.384       .  A
C157        H160   1.082       .  S
C158        C159   1.381       .  A
C158        C278   1.470       .  S
C159        H161   1.082       .  S
N162        N163   1.324       .  A
N162        C166   1.346       .  A
N163        C164   1.345       .  A
C164        C165   1.383       .  A
C164        H167   1.082       .  S
C165        C166   1.385       .  A
C165       C2646   1.481       .  S
C166        H168   1.081       .  S
N169        N170   1.321       .  A
N169        C173   1.350       .  A
N169       Cu177   2.083       .  S
N170        C171   1.341       .  A
N170       Cu176   2.064       .  S
C171        C172   1.380       .  A
C171        H174   1.082       .  S
C172        C173   1.386       .  A
C172        C268   1.470       .  S
C173        H175   1.082       .  S
Cu176       N179   2.063       .  S
Cu177       N187   2.086       .  S
Cu178       N180   2.082       .  S
Cu178       N186   2.084       .  S
N179        N180   1.321       .  A
N179        C183   1.341       .  A
N180        C181   1.350       .  A
C181        C182   1.386       .  A
C181        H184   1.082       .  S
C182        C183   1.379       .  A
C182        C244   1.469       .  S
C183        H185   1.082       .  S
N186        N187   1.325       .  A
N186        C190   1.347       .  A
N187        C188   1.345       .  A
C188        C189   1.385       .  A
C188        H191   1.082       .  S
C189        C190   1.384       .  A
C189       C2614   1.484       .  S
C190        H192   1.082       .  S
N193        N194   1.322       .  A
N193        C197   1.350       .  A
N193       Cu201   2.087       .  S
N194        C195   1.341       .  A
N194       Cu200   2.063       .  S
C195        C196   1.379       .  A
C195        H198   1.082       .  S
C196        C197   1.387       .  A
C196        C220   1.470       .  S
C197        H199   1.082       .  S
Cu200       N203   2.064       .  S
Cu201       N211   2.089       .  S
Cu202       N204   2.082       .  S
Cu202       N210   2.084       .  S
N203        N204   1.321       .  A
N203        C207   1.342       .  A
N204        C205   1.350       .  A
C205        C206   1.386       .  A
C205        H208   1.082       .  S
C206        C207   1.381       .  A
C206        C254   1.472       .  S
C207        H209   1.082       .  S
N210        N211   1.325       .  A
N210        C214   1.345       .  A
N211        C212   1.348       .  A
C212        C213   1.385       .  A
C212        H215   1.082       .  S
C213        C214   1.384       .  A
C213       C2582   1.485       .  S
C214        H216   1.081       .  S
N217        N218   1.321       .  A
N217        C221   1.349       .  A
N217       Cu225   2.076       .  S
N218        C219   1.342       .  A
N218       Cu224   2.068       .  S
C219        C220   1.381       .  A
C219        H222   1.082       .  S
C220        C221   1.385       .  A
C221        H223   1.082       .  S
Cu224       N227   2.068       .  S
Cu225       N235   2.078       .  S
Cu226       N228   2.085       .  S
Cu226       N234   2.086       .  S
N227        N228   1.322       .  A
N227        C231   1.342       .  A
N228        C229   1.349       .  A
C229        C230   1.385       .  A
C229        H232   1.082       .  S
C230        C231   1.380       .  A
C231        H233   1.082       .  S
N234        N235   1.324       .  A
N234        C238   1.347       .  A
N235        C236   1.344       .  A
C236        C237   1.383       .  A
C236        H239   1.081       .  S
C237        C238   1.385       .  A
C237       C2541   1.482       .  S
C238        H240   1.082       .  S
N241        N242   1.321       .  A
N241        C245   1.350       .  A
N241       Cu249   2.081       .  S
N242        C243   1.341       .  A
N242       Cu248   2.061       .  S
C243        C244   1.379       .  A
C243        H246   1.082       .  S
C244        C245   1.386       .  A
C245        H247   1.082       .  S
Cu248       N251   2.061       .  S
Cu249       N259   2.083       .  S
Cu250       N252   2.087       .  S
Cu250       N258   2.090       .  S
N251        N252   1.321       .  A
N251        C255   1.341       .  A
N252        C253   1.350       .  A
C253        C254   1.387       .  A
C253        H256   1.082       .  S
C254        C255   1.380       .  A
C255        H257   1.082       .  S
N258        N259   1.324       .  A
N258        C262   1.347       .  A
N259        C260   1.346       .  A
C260        C261   1.386       .  A
C260        H263   1.080       .  S
C261        C262   1.387       .  A
C261       C2509   1.488       .  S
C262        H264   1.082       .  S
N265        N266   1.321       .  A
N265        C269   1.352       .  A
N265       Cu273   2.090       .  S
N266        C267   1.340       .  A
N266       Cu272   2.059       .  S
C267        C268   1.378       .  A
C267        H270   1.082       .  S
C268        C269   1.388       .  A
C269        H271   1.082       .  S
Cu272       N275   2.059       .  S
Cu273       N283   2.092       .  S
Cu274       N276   2.088       .  S
Cu274       N282   2.091       .  S
N275        N276   1.321       .  A
N275        C279   1.341       .  A
N276        C277   1.350       .  A
C277        C278   1.387       .  A
C277        H280   1.082       .  S
C278        C279   1.379       .  A
C279        H281   1.082       .  S
N282        N283   1.326       .  A
N282        C286   1.348       .  A
N283        C284   1.347       .  A
C284        C285   1.385       .  A
C284        H287   1.081       .  S
C285        C286   1.384       .  A
C285       C2477   1.486       .  S
C286        H288   1.082       .  S
N289        N290   1.321       .  A
N289        C293   1.350       .  A
N289       Cu297   2.082       .  S
N290        C291   1.341       .  A
N290       Cu296   2.066       .  S
C291        C292   1.381       .  A
C291        H294   1.082       .  S
C292        C293   1.387       .  A
C292        C422   1.473       .  S
C293        H295   1.082       .  S
Cu296       N299   2.066       .  S
Cu297       N307   2.084       .  S
Cu298       N300   2.090       .  S
Cu298       N306   2.092       .  S
N299        N300   1.322       .  A
N299        C303   1.342       .  A
N300        C301   1.351       .  A
C301        C302   1.388       .  A
C301        H304   1.082       .  S
C302        C303   1.380       .  A
C302        C374   1.473       .  S
C303        H305   1.082       .  S
N306        N307   1.325       .  A
N306        C310   1.347       .  A
N307        C308   1.346       .  A
C308        C309   1.384       .  A
C308        H311   1.082       .  S
C309        C310   1.385       .  A
C309       C2445   1.483       .  S
C310        H312   1.082       .  S
N313        N314   1.322       .  A
N313        C317   1.351       .  A
N313       Cu321   2.090       .  S
N314        C315   1.342       .  A
N314       Cu320   2.070       .  S
C315        C316   1.380       .  A
C315        H318   1.082       .  S
C316        C317   1.387       .  A
C316        C412   1.472       .  S
C317        H319   1.082       .  S
Cu320       N323   2.070       .  S
Cu321       N331   2.092       .  S
Cu322       N324   2.086       .  S
Cu322       N330   2.088       .  S
N323        N324   1.321       .  A
N323        C327   1.343       .  A
N324        C325   1.351       .  A
C325        C326   1.387       .  A
C325        H328   1.082       .  S
C326        C327   1.381       .  A
C326        C398   1.474       .  S
C327        H329   1.082       .  S
N330        N331   1.325       .  A
N330        C334   1.346       .  A
N331        C332   1.348       .  A
C332        C333   1.386       .  A
C332        H335   1.082       .  S
C333        C334   1.385       .  A
C333       C2413   1.487       .  S
C334        H336   1.081       .  S
N337        N338   1.320       .  A
N337        C341   1.351       .  A
N337       Cu345   2.086       .  S
N338        C339   1.340       .  A
N338       Cu344   2.058       .  S
C339        C340   1.380       .  A
C339        H342   1.082       .  S
C340        C341   1.389       .  A
C340        C388   1.474       .  S
C341        H343   1.082       .  S
Cu344       N347   2.057       .  S
Cu345       N355   2.089       .  S
Cu346       N348   2.096       .  S
Cu346       N354   2.099       .  S
N347        N348   1.322       .  A
N347        C351   1.341       .  A
N348        C349   1.351       .  A
C349        C350   1.389       .  A
C349        H352   1.082       .  S
C350        C351   1.378       .  A
C350        C364   1.473       .  S
C351        H353   1.082       .  S
N354        N355   1.325       .  A
N354        C358   1.349       .  A
N355        C356   1.346       .  A
C356        C357   1.387       .  A
C356        H359   1.080       .  S
C357        C358   1.390       .  A
C357       C2390   1.493       .  S
C358        H360   1.082       .  S
N361        N362   1.322       .  A
N361        C365   1.349       .  A
N361       Cu369   2.077       .  S
N362        C363   1.343       .  A
N362       Cu368   2.077       .  S
C363        C364   1.383       .  A
C363        H366   1.082       .  S
C364        C365   1.384       .  A
C365        H367   1.082       .  S
Cu368       N371   2.077       .  S
Cu369       N379   2.078       .  S
Cu370       N372   2.083       .  S
Cu370       N378   2.084       .  S
N371        N372   1.322       .  A
N371        C375   1.343       .  A
N372        C373   1.350       .  A
C373        C374   1.385       .  A
C373        H376   1.082       .  S
C374        C375   1.382       .  A
C375        H377   1.082       .  S
N378        N379   1.324       .  A
N378        C382   1.346       .  A
N379        C380   1.345       .  A
C380        C381   1.383       .  A
C380        H383   1.082       .  S
C381        C382   1.385       .  A
C381       C2349   1.481       .  S
C382        H384   1.081       .  S
N385        N386   1.322       .  A
N385        C389   1.351       .  A
N385       Cu393   2.090       .  S
N386        C387   1.341       .  A
N386       Cu392   2.064       .  S
C387        C388   1.380       .  A
C387        H390   1.082       .  S
C388        C389   1.388       .  A
C389        H391   1.082       .  S
Cu392       N395   2.064       .  S
Cu393       N403   2.092       .  S
Cu394       N396   2.097       .  S
Cu394       N402   2.099       .  S
N395        N396   1.322       .  A
N395        C399   1.343       .  A
N396        C397   1.351       .  A
C397        C398   1.388       .  A
C397        H400   1.082       .  S
C398        C399   1.380       .  A
C399        H401   1.082       .  S
N402        N403   1.325       .  A
N402        C406   1.349       .  A
N403        C404   1.348       .  A
C404        C405   1.386       .  A
C404        H407   1.082       .  S
C405        C406   1.388       .  A
C405       C2317   1.490       .  S
C406        H408   1.082       .  S
N409        N410   1.321       .  A
N409        C413   1.351       .  A
N409       Cu417   2.090       .  S
N410        C411   1.341       .  A
N410       Cu416   2.062       .  S
C411        C412   1.379       .  A
C411        H414   1.082       .  S
C412        C413   1.388       .  A
C413        H415   1.082       .  S
Cu416       N419   2.063       .  S
Cu417       N427   2.092       .  S
Cu418       N420   2.085       .  S
Cu418       N426   2.087       .  S
N419        N420   1.321       .  A
N419        C423   1.341       .  A
N420        C421   1.350       .  A
C421        C422   1.388       .  A
C421        H424   1.082       .  S
C422        C423   1.380       .  A
C423        H425   1.082       .  S
N426        N427   1.324       .  A
N426        C430   1.346       .  A
N427        C428   1.347       .  A
C428        C429   1.388       .  A
C428        H431   1.082       .  S
C429        C430   1.388       .  A
C429       C2294   1.494       .  S
C430        H432   1.078       .  S
N433        N434   1.322       .  A
N433        C437   1.350       .  A
N433       Cu441   2.079       .  S
N434        C435   1.342       .  A
N434       Cu440   2.074       .  S
C435        C436   1.382       .  A
C435        H438   1.082       .  S
C436        C437   1.386       .  A
C436        C556   1.473       .  S
C437        H439   1.082       .  S
Cu440       N443   2.074       .  S
Cu441       N451   2.080       .  S
Cu442       N444   2.085       .  S
Cu442       N450   2.086       .  S
N443        N444   1.322       .  A
N443        C447   1.344       .  A
N444        C445   1.350       .  A
C445        C446   1.385       .  A
C445        H448   1.082       .  S
C446        C447   1.381       .  A
C446        C518   1.471       .  S
C447        H449   1.082       .  S
N450        N451   1.324       .  A
N450        C454   1.347       .  A
N451        C452   1.345       .  A
C452        C453   1.384       .  A
C452        H455   1.082       .  S
C453        C454   1.386       .  A
C453       C2262   1.483       .  S
C454        H456   1.082       .  S
N457        N458   1.322       .  A
N457        C461   1.350       .  A
N457       Cu465   2.085       .  S
N458        C459   1.343       .  A
N458       Cu464   2.069       .  S
C459        C460   1.381       .  A
C459        H462   1.082       .  S
C460        C461   1.386       .  A
C460        C566   1.472       .  S
C461        H463   1.082       .  S
Cu464       N467   2.069       .  S
Cu465       N475   2.087       .  S
Cu466       N468   2.089       .  S
Cu466       N474   2.091       .  S
N467        N468   1.322       .  A
N467        C471   1.342       .  A
N468        C469   1.351       .  A
C469        C470   1.387       .  A
C469        H472   1.082       .  S
C470        C471   1.381       .  A
C470        C542   1.473       .  S
C471        H473   1.082       .  S
N474        N475   1.325       .  A
N474        C478   1.347       .  A
N475        C476   1.347       .  A
C476        C477   1.386       .  A
C476        H479   1.082       .  S
C477        C478   1.386       .  A
C477       C2221   1.487       .  S
C478        H480   1.082       .  S
N481        N482   1.321       .  A
N481        C485   1.349       .  A
N481       Cu489   2.079       .  S
N482        C483   1.341       .  A
N482       Cu488   2.062       .  S
C483        C484   1.380       .  A
C483        H486   1.082       .  S
C484        C485   1.386       .  A
C484        C508   1.469       .  S
C485        H487   1.082       .  S
Cu488       N491   2.062       .  S
Cu489       N499   2.081       .  S
Cu490       N492   2.090       .  S
Cu490       N498   2.091       .  S
N491        N492   1.322       .  A
N491        C495   1.341       .  A
N492        C493   1.350       .  A
C493        C494   1.388       .  A
C493        H496   1.082       .  S
C494        C495   1.379       .  A
C494        C532   1.472       .  S
C495        H497   1.082       .  S
N498        N499   1.325       .  A
N498        C502   1.348       .  A
N499        C500   1.345       .  A
C500        C501   1.382       .  A
C500        H503   1.081       .  S
C501        C502   1.385       .  A
C501       C2189   1.481       .  S
C502        H504   1.082       .  S
N505        N506   1.322       .  A
N505        C509   1.349       .  A
N505       Cu513   2.076       .  S
N506        C507   1.342       .  A
N506       Cu512   2.070       .  S
C507        C508   1.381       .  A
C507        H510   1.082       .  S
C508        C509   1.384       .  A
C509        H511   1.082       .  S
Cu512       N515   2.070       .  S
Cu513       N523   2.078       .  S
Cu514       N516   2.086       .  S
Cu514       N522   2.088       .  S
N515        N516   1.322       .  A
N515        C519   1.343       .  A
N516        C517   1.350       .  A
C517        C518   1.386       .  A
C517        H520   1.082       .  S
C518        C519   1.381       .  A
C519        H521   1.082       .  S
N522        N523   1.324       .  A
N522        C526   1.346       .  A
N523        C524   1.346       .  A
C524        C525   1.384       .  A
C524        H527   1.081       .  S
C525        C526   1.385       .  A
C525       C2166   1.484       .  S
C526        H528   1.082       .  S
N529        N530   1.321       .  A
N529        C533   1.349       .  A
N529       Cu537   2.077       .  S
N530        C531   1.342       .  A
N530       Cu536   2.069       .  S
C531        C532   1.382       .  A
C531        H534   1.082       .  S
C532        C533   1.386       .  A
C533        H535   1.082       .  S
Cu536       N539   2.069       .  S
Cu537       N547   2.079       .  S
Cu538       N540   2.089       .  S
Cu538       N546   2.091       .  S
N539        N540   1.322       .  A
N539        C543   1.342       .  A
N540        C541   1.351       .  A
C541        C542   1.387       .  A
C541        H544   1.082       .  S
C542        C543   1.380       .  A
C543        H545   1.082       .  S
N546        N547   1.324       .  A
N546        C550   1.347       .  A
N547        C548   1.345       .  A
C548        C549   1.385       .  A
C548        H551   1.080       .  S
C549        C550   1.388       .  A
C549       C2125   1.487       .  S
C550        H552   1.082       .  S
N553        N554   1.321       .  A
N553        C557   1.351       .  A
N553       Cu561   2.091       .  S
N554        C555   1.341       .  A
N554       Cu560   2.062       .  S
C555        C556   1.379       .  A
C555        H558   1.082       .  S
C556        C557   1.389       .  A
C557        H559   1.082       .  S
Cu560       N563   2.062       .  S
Cu561       N571   2.093       .  S
Cu562       N564   2.090       .  S
Cu562       N570   2.092       .  S
N563        N564   1.321       .  A
N563        C567   1.342       .  A
N564        C565   1.350       .  A
C565        C566   1.388       .  A
C565        H568   1.082       .  S
C566        C567   1.380       .  A
C567        H569   1.082       .  S
N570        N571   1.325       .  A
N570        C574   1.348       .  A
N571        C572   1.347       .  A
C572        C573   1.386       .  A
C572        H575   1.082       .  S
C573        C574   1.387       .  A
C573       C2093   1.489       .  S
C574        H576   1.082       .  S
N577        N578   1.322       .  A
N577        C581   1.348       .  A
N577       Cu585   2.078       .  S
N578        C579   1.342       .  A
N578       Cu584   2.072       .  S
C579        C580   1.382       .  A
C579        H582   1.082       .  S
C580        C581   1.385       .  A
C580        C652   1.471       .  S
C581        H583   1.082       .  S
Cu584       N587   2.071       .  S
Cu585       N595   2.079       .  S
Cu586       N588   2.070       .  S
Cu586       N594   2.072       .  S
N587        N588   1.321       .  A
N587        C591   1.343       .  A
N588        C589   1.347       .  A
C589        C590   1.383       .  A
C589        H592   1.082       .  S
C590        C591   1.382       .  A
C590        C700   1.469       .  S
C591        H593   1.082       .  S
N594        N595   1.324       .  A
N594        C598   1.344       .  A
N595        C596   1.346       .  A
C596        C597   1.382       .  A
C596        H599   1.082       .  S
C597        C598   1.381       .  A
C597       C2061   1.475       .  S
C598        H600   1.082       .  S
N601        N602   1.322       .  A
N601        C605   1.349       .  A
N601       Cu609   2.083       .  S
N602        C603   1.343       .  A
N602       Cu608   2.075       .  S
C603        C604   1.382       .  A
C603        H606   1.082       .  S
C604        C605   1.385       .  A
C604        C676   1.473       .  S
C605        H607   1.082       .  S
Cu608       N611   2.075       .  S
Cu609       N619   2.084       .  S
Cu610       N612   2.081       .  S
Cu610       N618   2.083       .  S
N611        N612   1.322       .  A
N611        C615   1.344       .  A
N612        C613   1.349       .  A
C613        C614   1.385       .  A
C613        H616   1.082       .  S
C614        C615   1.382       .  A
C614        C710   1.472       .  S
C615        H617   1.082       .  S
N618        N619   1.323       .  A
N618        C622   1.346       .  A
N619        C620   1.346       .  A
C620        C621   1.387       .  A
C620        H623   1.080       .  S
C621        C622   1.385       .  A
C621       C2029   1.486       .  S
C622        H624   1.082       .  S
N625        N626   1.322       .  A
N625        C629   1.351       .  A
N625       Cu633   2.087       .  S
N626        C627   1.341       .  A
N626       Cu632   2.066       .  S
C627        C628   1.380       .  A
C627        H630   1.082       .  S
C628        C629   1.387       .  A
C628        C686   1.472       .  S
C629        H631   1.082       .  S
Cu632       N635   2.066       .  S
Cu633       N643   2.088       .  S
Cu634       N636   2.084       .  S
Cu634       N642   2.086       .  S
N635        N636   1.321       .  A
N635        C639   1.342       .  A
N636        C637   1.350       .  A
C637        C638   1.386       .  A
C637        H640   1.082       .  S
C638        C639   1.380       .  A
C638        C662   1.471       .  S
C639        H641   1.082       .  S
N642        N643   1.324       .  A
N642        C646   1.346       .  A
N643        C644   1.346       .  A
C644        C645   1.387       .  A
C644        H647   1.079       .  S
C645        C646   1.386       .  A
C645       C2006   1.490       .  S
C646        H648   1.082       .  S
N649        N650   1.322       .  A
N649        C653   1.349       .  A
N649       Cu657   2.086       .  S
N650        C651   1.342       .  A
N650       Cu656   2.065       .  S
C651        C652   1.380       .  A
C651        H654   1.082       .  S
C652        C653   1.386       .  A
C653        H655   1.082       .  S
Cu656       N659   2.065       .  S
Cu657       N667   2.087       .  S
Cu658       N660   2.084       .  S
Cu658       N666   2.086       .  S
N659        N660   1.321       .  A
N659        C663   1.342       .  A
N660        C661   1.349       .  A
C661        C662   1.386       .  A
C661        H664   1.082       .  S
C662        C663   1.380       .  A
C663        H665   1.082       .  S
N666        N667   1.325       .  A
N666        C670   1.346       .  A
N667        C668   1.348       .  A
C668        C669   1.384       .  A
C668        H671   1.082       .  S
C669        C670   1.384       .  A
C669       C1965   1.482       .  S
C670        H672   1.082       .  S
N673        N674   1.321       .  A
N673        C677   1.350       .  A
N673       Cu681   2.087       .  S
N674        C675   1.343       .  A
N674       Cu680   2.065       .  S
C675        C676   1.380       .  A
C675        H678   1.082       .  S
C676        C677   1.387       .  A
C677        H679   1.082       .  S
Cu680       N683   2.065       .  S
Cu681       N691   2.089       .  S
Cu682       N684   2.091       .  S
Cu682       N690   2.093       .  S
N683        N684   1.322       .  A
N683        C687   1.341       .  A
N684        C685   1.351       .  A
C685        C686   1.388       .  A
C685        H688   1.082       .  S
C686        C687   1.380       .  A
C687        H689   1.082       .  S
N690        N691   1.325       .  A
N690        C694   1.348       .  A
N691        C692   1.347       .  A
C692        C693   1.385       .  A
C692        H695   1.082       .  S
C693        C694   1.385       .  A
C693       C1933   1.486       .  S
C694        H696   1.082       .  S
N697        N698   1.322       .  A
N697        C701   1.349       .  A
N697       Cu705   2.084       .  S
N698        C699   1.342       .  A
N698       Cu704   2.060       .  S
C699        C700   1.379       .  A
C699        H702   1.082       .  S
C700        C701   1.386       .  A
C701        H703   1.082       .  S
Cu704       N707   2.061       .  S
Cu705       N715   2.086       .  S
Cu706       N708   2.094       .  S
Cu706       N714   2.096       .  S
N707        N708   1.322       .  A
N707        C711   1.342       .  A
N708        C709   1.351       .  A
C709        C710   1.388       .  A
C709        H712   1.082       .  S
C710        C711   1.379       .  A
C711        H713   1.082       .  S
N714        N715   1.325       .  A
N714        C718   1.348       .  A
N715        C716   1.347       .  A
C716        C717   1.384       .  A
C716        H719   1.082       .  S
C717        C718   1.387       .  A
C717       C1901   1.487       .  S
C718        H720   1.082       .  S
N721        N722   1.321       .  A
N721        C725   1.348       .  A
N721       Cu729   2.078       .  S
N722        C723   1.342       .  A
N722       Cu728   2.064       .  S
C723        C724   1.380       .  A
C723        H726   1.082       .  S
C724        C725   1.384       .  A
C724        C854   1.467       .  S
C725        H727   1.082       .  S
Cu728       N731   2.064       .  S
Cu729       N739   2.080       .  S
Cu730       N732   2.087       .  S
Cu730       N738   2.088       .  S
N731        N732   1.322       .  A
N731        C735   1.341       .  A
N732        C733   1.350       .  A
C733        C734   1.386       .  A
C733        H736   1.082       .  S
C734        C735   1.379       .  A
C734        C806   1.470       .  S
C735        H737   1.082       .  S
N738        N739   1.324       .  A
N738        C742   1.347       .  A
N739        C740   1.345       .  A
C740        C741   1.384       .  A
C740        H743   1.082       .  S
C741        C742   1.387       .  A
C741       C1878   1.486       .  S
C742        H744   1.082       .  S
N745        N746   1.323       .  A
N745        C749   1.351       .  A
N745       Cu753   2.087       .  S
N746        C747   1.340       .  A
N746       Cu752   2.065       .  S
C747        C748   1.379       .  A
C747        H750   1.082       .  S
C748        C749   1.386       .  A
C748        C844   1.470       .  S
C749        H751   1.082       .  S
Cu752       N755   2.065       .  S
Cu753       N763   2.088       .  S
Cu754       N756   2.076       .  S
Cu754       N762   2.078       .  S
N755        N756   1.321       .  A
N755        C759   1.343       .  A
N756        C757   1.347       .  A
C757        C758   1.384       .  A
C757        H760   1.082       .  S
C758        C759   1.381       .  A
C758        C830   1.469       .  S
C759        H761   1.082       .  S
N762        N763   1.323       .  A
N762        C766   1.344       .  A
N763        C764   1.346       .  A
C764        C765   1.390       .  A
C764        H767   1.082       .  S
C765        C766   1.387       .  A
C765       C1846   1.492       .  S
C766        H768   1.079       .  S
N769        N770   1.321       .  A
N769        C773   1.350       .  A
N769       Cu777   2.089       .  S
N770        C771   1.342       .  A
N770       Cu776   2.065       .  S
C771        C772   1.381       .  A
C771        H774   1.082       .  S
C772        C773   1.388       .  A
C772        C796   1.474       .  S
C773        H775   1.082       .  S
Cu776       N779   2.064       .  S
Cu777       N787   2.090       .  S
Cu778       N780   2.087       .  S
Cu778       N786   2.089       .  S
N779        N780   1.322       .  A
N779        C783   1.341       .  A
N780        C781   1.351       .  A
C781        C782   1.387       .  A
C781        H784   1.082       .  S
C782        C783   1.380       .  A
C782        C820   1.472       .  S
C783        H785   1.082       .  S
N786        N787   1.325       .  A
N786        C790   1.347       .  A
N787        C788   1.348       .  A
C788        C789   1.385       .  A
C788        H791   1.082       .  S
C789        C790   1.386       .  A
C789       C1814   1.489       .  S
C790        H792   1.082       .  S
N793        N794   1.322       .  A
N793        C797   1.350       .  A
N793       Cu801   2.089       .  S
N794        C795   1.342       .  A
N794       Cu800   2.067       .  S
C795        C796   1.381       .  A
C795        H798   1.082       .  S
C796        C797   1.387       .  A
C797        H799   1.082       .  S
Cu800       N803   2.067       .  S
Cu801       N811   2.091       .  S
Cu802       N804   2.080       .  S
Cu802       N810   2.082       .  S
N803        N804   1.321       .  A
N803        C807   1.342       .  A
N804        C805   1.349       .  A
C805        C806   1.385       .  A
C805        H808   1.082       .  S
C806        C807   1.380       .  A
C807        H809   1.082       .  S
N810        N811   1.324       .  A
N810        C814   1.346       .  A
N811        C812   1.347       .  A
C812        C813   1.388       .  A
C812        H815   1.082       .  S
C813        C814   1.386       .  A
C813       C1773   1.490       .  S
C814        H816   1.082       .  S
N817        N818   1.322       .  A
N817        C821   1.350       .  A
N817       Cu825   2.081       .  S
N818        C819   1.341       .  A
N818       Cu824   2.069       .  S
C819        C820   1.381       .  A
C819        H822   1.082       .  S
C820        C821   1.386       .  A
C821        H823   1.082       .  S
Cu824       N827   2.068       .  S
Cu825       N835   2.082       .  S
Cu826       N828   2.076       .  S
Cu826       N834   2.078       .  S
N827        N828   1.321       .  A
N827        C831   1.343       .  A
N828        C829   1.348       .  A
C829        C830   1.385       .  A
C829        H832   1.082       .  S
C830        C831   1.381       .  A
C831        H833   1.082       .  S
N834        N835   1.324       .  A
N834        C838   1.345       .  A
N835        C836   1.346       .  A
C836        C837   1.385       .  A
C836        H839   1.081       .  S
C837        C838   1.384       .  A
C837       C1741   1.483       .  S
C838        H840   1.082       .  S
N841        N842   1.321       .  A
N841        C845   1.351       .  A
N841       Cu849   2.081       .  S
N842        C843   1.340       .  A
N842       Cu848   2.061       .  S
C843        C844   1.379       .  A
C843        H846   1.082       .  S
C844        C845   1.387       .  A
C845        H847   1.082       .  S
Cu848       N851   2.061       .  S
Cu849       N859   2.083       .  S
Cu850       N852   2.080       .  S
Cu850       N858   2.082       .  S
N851        N852   1.321       .  A
N851        C855   1.342       .  A
N852        C853   1.349       .  A
C853        C854   1.385       .  A
C853        H856   1.082       .  S
C854        C855   1.379       .  A
C855        H857   1.082       .  S
N858        N859   1.324       .  A
N858        C862   1.346       .  A
N859        C860   1.345       .  A
C860        C861   1.384       .  A
C860        H863   1.082       .  S
C861        C862   1.386       .  A
C861       C1718   1.485       .  S
C862        H864   1.080       .  S
N865        N866   1.322       .  A
N865        C869   1.350       .  A
N865       Cu873   2.089       .  S
N866        C867   1.342       .  A
N866       Cu872   2.063       .  S
C867        C868   1.380       .  A
C867        H870   1.082       .  S
C868        C869   1.387       .  A
C868        C998   1.472       .  S
C869        H871   1.082       .  S
Cu872       N875   2.064       .  S
Cu873       N883   2.090       .  S
Cu874       N876   2.078       .  S
Cu874       N882   2.080       .  S
N875        N876   1.321       .  A
N875        C879   1.340       .  A
N876        C877   1.350       .  A
C877        C878   1.387       .  A
C877        H880   1.082       .  S
C878        C879   1.381       .  A
C878        C950   1.473       .  S
C879        H881   1.082       .  S
N882        N883   1.323       .  A
N882        C886   1.344       .  A
N883        C884   1.347       .  A
C884        C885   1.390       .  A
C884        H887   1.078       .  S
C885        C886   1.386       .  A
C885       C1686   1.492       .  S
C886        H888   1.082       .  S
N889        N890   1.322       .  A
N889        C893   1.352       .  A
N889       Cu897   2.096       .  S
N890        C891   1.342       .  A
N890       Cu896   2.065       .  S
C891        C892   1.379       .  A
C891        H894   1.082       .  S
C892        C893   1.388       .  A
C892        C988   1.472       .  S
C893        H895   1.082       .  S
Cu896       N899   2.066       .  S
Cu897       N907   2.099       .  S
Cu898       N900   2.093       .  S
Cu898       N906   2.095       .  S
N899        N900   1.321       .  A
N899        C903   1.341       .  A
N900        C901   1.352       .  A
C901        C902   1.389       .  A
C901        H904   1.082       .  S
C902        C903   1.381       .  A
C902        C974   1.475       .  S
C903        H905   1.082       .  S
N906        N907   1.325       .  A
N906        C910   1.347       .  A
N907        C908   1.349       .  A
C908        C909   1.388       .  A
C908        H911   1.082       .  S
C909        C910   1.388       .  A
C909       C1645   1.495       .  S
C910        H912   1.080       .  S
N913        N914   1.323       .  A
N913        C917   1.350       .  A
N913       Cu921   2.088       .  S
N914        C915   1.344       .  A
N914       Cu920   2.076       .  S
C915        C916   1.382       .  A
C915        H918   1.082       .  S
C916        C917   1.385       .  A
C916        C940   1.473       .  S
C917        H919   1.082       .  S
Cu920       N923   2.076       .  S
Cu921       N931   2.089       .  S
Cu922       N924   2.090       .  S
Cu922       N930   2.091       .  S
N923        N924   1.323       .  A
N923        C927   1.344       .  A
N924        C925   1.351       .  A
C925        C926   1.386       .  A
C925        H928   1.082       .  S
C926        C927   1.382       .  A
C926        C964   1.475       .  S
C927        H929   1.082       .  S
N930        N931   1.324       .  A
N930        C934   1.348       .  A
N931        C932   1.348       .  A
C932        C933   1.386       .  A
C932        H935   1.081       .  S
C933        C934   1.386       .  A
C933       C1613   1.488       .  S
C934        H936   1.082       .  S
N937        N938   1.320       .  A
N937        C941   1.350       .  A
N937       Cu945   2.089       .  S
N938        C939   1.343       .  A
N938       Cu944   2.060       .  S
C939        C940   1.381       .  A
C939        H942   1.082       .  S
C940        C941   1.388       .  A
C941        H943   1.082       .  S
Cu944       N947   2.060       .  S
Cu945       N955   2.091       .  S
Cu946       N948   2.095       .  S
Cu946       N954   2.097       .  S
N947        N948   1.322       .  A
N947        C951   1.339       .  A
N948        C949   1.352       .  A
C949        C950   1.389       .  A
C949        H952   1.082       .  S
C950        C951   1.378       .  A
C951        H953   1.082       .  S
N954        N955   1.325       .  A
N954        C958   1.350       .  A
N955        C956   1.346       .  A
C956        C957   1.385       .  A
C956        H959   1.082       .  S
C957        C958   1.389       .  A
C957       C1581   1.490       .  S
C958        H960   1.082       .  S
N961        N962   1.321       .  A
N961        C965   1.351       .  A
N961       Cu969   2.091       .  S
N962        C963   1.342       .  A
N962       Cu968   2.064       .  S
C963        C964   1.380       .  A
C963        H966   1.082       .  S
C964        C965   1.389       .  A
C965        H967   1.082       .  S
Cu968       N971   2.064       .  S
Cu969       N979   2.093       .  S
Cu970       N972   2.092       .  S
Cu970       N978   2.095       .  S
N971        N972   1.321       .  A
N971        C975   1.340       .  A
N972        C973   1.353       .  A
C973        C974   1.390       .  A
C973        H976   1.082       .  S
C974        C975   1.380       .  A
C975        H977   1.082       .  S
N978        N979   1.325       .  A
N978        C982   1.347       .  A
N979        C980   1.348       .  A
C980        C981   1.387       .  A
C980        H983   1.082       .  S
C981        C982   1.387       .  A
C981       C1549   1.490       .  S
C982        H984   1.082       .  S
N985        N986   1.322       .  A
N985        C989   1.351       .  A
N985       Cu993   2.092       .  S
N986        C987   1.343       .  A
N986       Cu992   2.072       .  S
C987        C988   1.380       .  A
C987        H990   1.082       .  S
C988        C989   1.387       .  A
C989        H991   1.082       .  S
Cu992       N995   2.071       .  S
Cu993      N1003   2.093       .  S
Cu994       N996   2.082       .  S
Cu994      N1002   2.083       .  S
N995        N996   1.322       .  A
N995        C999   1.343       .  A
N996        C997   1.349       .  A
C997        C998   1.385       .  A
C997       H1000   1.082       .  S
C998        C999   1.382       .  A
C999       H1001   1.082       .  S
N1002      N1003   1.323       .  A
N1002      C1006   1.346       .  A
N1003      C1004   1.347       .  A
C1004      C1005   1.389       .  A
C1004      H1007   1.082       .  S
C1005      C1006   1.387       .  A
C1005      C1517   1.493       .  S
C1006      H1008   1.079       .  S
N1009      N1010   1.323       .  A
N1009      C1013   1.350       .  A
N1009     Cu1017   2.091       .  S
N1010      C1011   1.342       .  A
N1010     Cu1016   2.065       .  S
C1011      C1012   1.379       .  A
C1011      H1014   1.082       .  S
C1012      C1013   1.387       .  A
C1012      C1118   1.471       .  S
C1013      H1015   1.082       .  S
Cu1016     N1019   2.065       .  S
Cu1017     N1027   2.093       .  S
Cu1018     N1020   2.077       .  S
Cu1018     N1026   2.078       .  S
N1019      N1020   1.321       .  A
N1019      C1023   1.342       .  A
N1020      C1021   1.348       .  A
C1021      C1022   1.385       .  A
C1021      H1024   1.082       .  S
C1022      C1023   1.381       .  A
C1022      C1142   1.470       .  S
C1023      H1025   1.082       .  S
N1026      N1027   1.325       .  A
N1026      C1030   1.345       .  A
N1027      C1028   1.348       .  A
C1028      C1029   1.385       .  A
C1028      H1031   1.082       .  S
C1029      C1030   1.382       .  A
C1029      C1485   1.481       .  S
C1030      H1032   1.082       .  S
N1033      N1034   1.322       .  A
N1033      C1037   1.350       .  A
N1033     Cu1041   2.081       .  S
N1034      C1035   1.342       .  A
N1034     Cu1040   2.069       .  S
C1035      C1036   1.381       .  A
C1035      H1038   1.082       .  S
C1036      C1037   1.386       .  A
C1036      C1132   1.471       .  S
C1037      H1039   1.082       .  S
Cu1040     N1043   2.070       .  S
Cu1041     N1051   2.083       .  S
Cu1042     N1044   2.080       .  S
Cu1042     N1050   2.081       .  S
N1043      N1044   1.322       .  A
N1043      C1047   1.343       .  A
N1044      C1045   1.349       .  A
C1045      C1046   1.385       .  A
C1045      H1048   1.082       .  S
C1046      C1047   1.382       .  A
C1046      C1084   1.472       .  S
C1047      H1049   1.082       .  S
N1050      N1051   1.323       .  A
N1050      C1054   1.345       .  A
N1051      C1052   1.346       .  A
C1052      C1053   1.386       .  A
C1052      H1055   1.080       .  S
C1053      C1054   1.385       .  A
C1053      C1462   1.486       .  S
C1054      H1056   1.082       .  S
N1057      N1058   1.322       .  A
N1057      C1061   1.350       .  A
N1057     Cu1065   2.087       .  S
N1058      C1059   1.342       .  A
N1058     Cu1064   2.067       .  S
C1059      C1060   1.380       .  A
C1059      H1062   1.082       .  S
C1060      C1061   1.387       .  A
C1060      C1108   1.472       .  S
C1061      H1063   1.082       .  S
Cu1064     N1067   2.067       .  S
Cu1065     N1075   2.089       .  S
Cu1066     N1068   2.079       .  S
Cu1066     N1074   2.080       .  S
N1067      N1068   1.321       .  A
N1067      C1071   1.342       .  A
N1068      C1069   1.349       .  A
C1069      C1070   1.385       .  A
C1069      H1072   1.082       .  S
C1070      C1071   1.381       .  A
C1070      C1094   1.470       .  S
C1071      H1073   1.082       .  S
N1074      N1075   1.324       .  A
N1074      C1078   1.346       .  A
N1075      C1076   1.346       .  A
C1076      C1077   1.387       .  A
C1076      H1079   1.082       .  S
C1077      C1078   1.386       .  A
C1077      C1421   1.487       .  S
C1078      H1080   1.082       .  S
N1081      N1082   1.322       .  A
N1081      C1085   1.350       .  A
N1081     Cu1089   2.092       .  S
N1082      C1083   1.342       .  A
N1082     Cu1088   2.062       .  S
C1083      C1084   1.379       .  A
C1083      H1086   1.082       .  S
C1084      C1085   1.387       .  A
C1085      H1087   1.082       .  S
Cu1088     N1091   2.062       .  S
Cu1089     N1099   2.094       .  S
Cu1090     N1092   2.082       .  S
Cu1090     N1098   2.084       .  S
N1091      N1092   1.321       .  A
N1091      C1095   1.342       .  A
N1092      C1093   1.349       .  A
C1093      C1094   1.386       .  A
C1093      H1096   1.082       .  S
C1094      C1095   1.380       .  A
C1095      H1097   1.082       .  S
N1098      N1099   1.324       .  A
N1098      C1102   1.346       .  A
N1099      C1100   1.348       .  A
C1100      C1101   1.391       .  A
C1100      H1103   1.079       .  S
C1101      C1102   1.386       .  A
C1101      C1398   1.495       .  S
C1102      H1104   1.082       .  S
N1105      N1106   1.322       .  A
N1105      C1109   1.350       .  A
N1105     Cu1113   2.086       .  S
N1106      C1107   1.343       .  A
N1106     Cu1112   2.072       .  S
C1107      C1108   1.381       .  A
C1107      H1110   1.082       .  S
C1108      C1109   1.386       .  A
C1109      H1111   1.082       .  S
Cu1112     N1115   2.072       .  S
Cu1113     N1123   2.088       .  S
Cu1114     N1116   2.078       .  S
Cu1114     N1122   2.079       .  S
N1115      N1116   1.322       .  A
N1115      C1119   1.343       .  A
N1116      C1117   1.349       .  A
C1117      C1118   1.385       .  A
C1117      H1120   1.082       .  S
C1118      C1119   1.382       .  A
C1119      H1121   1.082       .  S
N1122      N1123   1.324       .  A
N1122      C1126   1.345       .  A
N1123      C1124   1.347       .  A
C1124      C1125   1.387       .  A
C1124      H1127   1.082       .  S
C1125      C1126   1.383       .  A
C1125      C1366   1.485       .  S
C1126      H1128   1.082       .  S
N1129      N1130   1.322       .  A
N1129      C1133   1.350       .  A
N1129     Cu1137   2.086       .  S
N1130      C1131   1.341       .  A
N1130     Cu1136   2.064       .  S
C1131      C1132   1.379       .  A
C1131      H1134   1.082       .  S
C1132      C1133   1.387       .  A
C1133      H1135   1.082       .  S
Cu1136     N1139   2.063       .  S
Cu1137     N1147   2.088       .  S
Cu1138     N1140   2.079       .  S
Cu1138     N1146   2.081       .  S
N1139      N1140   1.321       .  A
N1139      C1143   1.342       .  A
N1140      C1141   1.348       .  A
C1141      C1142   1.386       .  A
C1141      H1144   1.082       .  S
C1142      C1143   1.380       .  A
C1143      H1145   1.082       .  S
N1146      N1147   1.325       .  A
N1146      C1150   1.345       .  A
N1147      C1148   1.347       .  A
C1148      C1149   1.384       .  A
C1148      H1151   1.082       .  S
C1149      C1150   1.383       .  A
C1149      C1325   1.481       .  S
C1150      H1152   1.082       .  S
O1153     Cu1161   2.009       .  S
O1153      C1163   1.277       .  A
O1154     Cu1161   2.012       .  S
O1154      C1164   1.278       .  A
O1155     Cu1161   2.025       .  S
O1155      C1165   1.280       .  A
O1156     Cu1161   2.026       .  S
O1156      C1166   1.280       .  A
O1157     Cu1162   2.014       .  S
O1157      C1166   1.278       .  A
O1158     Cu1162   2.011       .  S
O1158      C1165   1.277       .  A
O1159     Cu1162   2.022       .  S
O1159      C1164   1.280       .  A
O1160     Cu1162   2.021       .  S
O1160      C1163   1.279       .  A
Cu1161    Cu1162   2.373       .  S
C1163      C1334   1.477       .  S
C1164      C1782   1.484       .  S
C1165      C1974   1.479       .  S
C1166      C1590   1.484       .  S
O1167     Cu1175   2.020       .  S
O1167      C1177   1.279       .  A
O1168     Cu1175   2.027       .  S
O1168      C1178   1.280       .  A
O1169     Cu1175   2.024       .  S
O1169      C1179   1.279       .  A
O1170     Cu1175   2.025       .  S
O1170      C1180   1.280       .  A
O1171     Cu1176   2.015       .  S
O1171      C1180   1.278       .  A
O1172     Cu1176   2.017       .  S
O1172      C1179   1.279       .  A
O1173     Cu1176   2.014       .  S
O1173      C1178   1.278       .  A
O1174     Cu1176   2.010       .  S
O1174      C1177   1.277       .  A
Cu1175    Cu1176   2.369       .  S
C1177      C1357   1.484       .  S
C1178      C2326   1.490       .  S
C1179      C1910   1.488       .  S
C1180      C2486   1.489       .  S
O1181     Cu1189   2.018       .  S
O1181      C1191   1.279       .  A
O1182     Cu1189   2.018       .  S
O1182      C1192   1.279       .  A
O1183     Cu1189   2.014       .  S
O1183      C1193   1.278       .  A
O1184     Cu1189   2.019       .  S
O1184      C1194   1.279       .  A
O1185     Cu1190   2.028       .  S
O1185      C1194   1.280       .  A
O1186     Cu1190   2.027       .  S
O1186      C1193   1.280       .  A
O1187     Cu1190   2.013       .  S
O1187      C1192   1.277       .  A
O1188     Cu1190   2.013       .  S
O1188      C1191   1.278       .  A
Cu1189    Cu1190   2.371       .  S
C1191      C1558   1.483       .  S
C1192      C2518   1.481       .  S
C1193      C2678   1.485       .  S
C1194      C1389   1.491       .  S
O1195     Cu1203   2.007       .  S
O1195      C1205   1.277       .  A
O1196     Cu1203   2.009       .  S
O1196      C1206   1.278       .  A
O1197     Cu1203   2.008       .  S
O1197      C1207   1.278       .  A
O1198     Cu1203   2.010       .  S
O1198      C1208   1.278       .  A
O1199     Cu1204   2.018       .  S
O1199      C1208   1.279       .  A
O1200     Cu1204   2.015       .  S
O1200      C1207   1.279       .  A
O1201     Cu1204   2.012       .  S
O1201      C1206   1.277       .  A
O1202     Cu1204   2.012       .  S
O1202      C1205   1.277       .  A
Cu1203    Cu1204   2.374       .  S
C1205      C2710   1.472       .  S
C1206      C1750   1.474       .  S
C1207      C2157   1.479       .  S
C1208      C1526   1.484       .  S
O1209     Cu1217   2.014       .  S
O1209      C1219   1.278       .  A
O1210     Cu1217   2.015       .  S
O1210      C1220   1.279       .  A
O1211     Cu1217   2.022       .  S
O1211      C1221   1.279       .  A
O1212     Cu1217   2.020       .  S
O1212      C1222   1.278       .  A
O1213     Cu1218   2.020       .  S
O1213      C1222   1.279       .  A
O1214     Cu1218   2.018       .  S
O1214      C1221   1.278       .  A
O1215     Cu1218   2.013       .  S
O1215      C1220   1.278       .  A
O1216     Cu1218   2.010       .  S
O1216      C1219   1.278       .  A
Cu1217    Cu1218   2.373       .  S
C1219      C1709   1.478       .  S
C1220      C2285   1.486       .  S
C1221      C2102   1.484       .  S
C1222      C1942   1.479       .  S
O1223     Cu1231   2.008       .  S
O1223      C1233   1.277       .  A
O1224     Cu1231   2.011       .  S
O1224      C1234   1.278       .  A
O1225     Cu1231   2.021       .  S
O1225      C1235   1.279       .  A
O1226     Cu1231   2.021       .  S
O1226      C1236   1.279       .  A
O1227     Cu1232   2.006       .  S
O1227      C1236   1.278       .  A
O1228     Cu1232   2.003       .  S
O1228      C1235   1.276       .  A
O1229     Cu1232   2.012       .  S
O1229      C1234   1.278       .  A
O1230     Cu1232   2.022       .  S
O1230      C1233   1.279       .  A
Cu1231    Cu1232   2.371       .  S
C1233      C2134   1.483       .  S
C1234      C2550   1.480       .  S
C1235      C2742   1.479       .  S
C1236      C2358   1.490       .  S
O1237     Cu1245   2.008       .  S
O1237      C1247   1.277       .  A
O1238     Cu1245   2.013   1_455  S
O1238      C1248   1.279   1_565  A
O1239     Cu1245   2.012   1_455  S
O1239      C1249   1.278       .  A
O1240     Cu1245   2.021       .  S
O1240      C1250   1.279   1_565  A
O1241     Cu1246   2.023       .  S
O1241      C1250   1.279   1_565  A
O1242     Cu1246   2.019   1_455  S
O1242      C1249   1.278       .  A
O1243     Cu1246   2.013   1_455  S
O1243      C1248   1.278   1_565  A
O1244     Cu1246   2.016       .  S
O1244      C1247   1.280       .  A
Cu1245    Cu1246   2.367       .  S
C1247      C1837   1.497       .  S
C1248      C1430   1.489       .  S
C1249      C2038   1.479       .  S
C1250      C1654   1.488       .  S
O1251     Cu1259   2.008   1_455  S
O1251      C1261   1.278       .  A
O1252     Cu1259   2.005       .  S
O1252      C1262   1.277       .  A
O1253     Cu1259   2.011       .  S
O1253      C1263   1.277   1_565  A
O1254     Cu1259   2.009   1_455  S
O1254      C1264   1.277       .  A
O1255     Cu1260   2.019   1_455  S
O1255      C1264   1.279       .  A
O1256     Cu1260   2.020       .  S
O1256      C1263   1.280   1_565  A
O1257     Cu1260   2.018       .  S
O1257      C1262   1.279       .  A
O1258     Cu1260   2.015   1_455  S
O1258      C1261   1.278       .  A
Cu1259    Cu1260   2.370       .  S
C1261      C2605   1.476   1_565  S
C1262      C2253   1.479       .  S
C1263      C2797   1.499       .  S
C1264      C2422   1.478       .  S
O1265     Cu1273   2.011       .  S
O1265      C1275   1.277   1_564  A
O1266     Cu1273   2.006       .  S
O1266      C1276   1.276       .  A
O1267     Cu1273   2.015       .  S
O1267      C1277   1.278   1_554  A
O1268     Cu1273   2.024       .  S
O1268      C1278   1.279   1_565  A
O1269     Cu1274   2.008       .  S
O1269      C1278   1.278   1_565  A
O1270     Cu1274   2.012       .  S
O1270      C1277   1.277   1_554  A
O1271     Cu1274   2.025       .  S
O1271      C1276   1.281       .  A
O1272     Cu1274   2.017       .  S
O1272      C1275   1.279   1_564  A
Cu1273    Cu1274   2.369       .  S
C1275      C2573   1.486       .  S
C1276      C1997   1.490       .  S
C1277      C2454   1.479       .  S
C1278      C1453   1.489       .  S
O1279     Cu1287   2.007   1_556  S
O1279      C1289   1.278       .  A
O1280     Cu1287   2.013   1_455  S
O1280      C1290   1.277       .  A
O1281     Cu1287   2.015   1_456  S
O1281      C1291   1.278       .  A
O1282     Cu1287   2.019       .  S
O1282      C1292   1.279       .  A
O1283     Cu1288   2.001       .  S
O1283      C1292   1.276       .  A
O1284     Cu1288   2.003   1_456  S
O1284      C1291   1.277       .  A
O1285     Cu1288   2.015   1_455  S
O1285      C1290   1.279       .  A
O1286     Cu1288   2.016   1_556  S
O1286      C1289   1.279       .  A
Cu1287    Cu1288   2.373       .  S
C1289      C2765   1.479       .  S
C1290      C1494   1.479       .  S
C1291      C2637   1.475       .  S
C1292      C1677   1.485       .  S
O1293     Cu1301   2.020       .  S
O1293      C1303   1.279       .  A
O1294     Cu1301   2.014       .  S
O1294      C1304   1.279   1_554  A
O1295     Cu1301   2.018       .  S
O1295      C1305   1.278   1_565  A
O1296     Cu1301   2.014       .  S
O1296      C1306   1.278   1_554  A
O1297     Cu1302   2.025       .  S
O1297      C1306   1.280   1_554  A
O1298     Cu1302   2.023       .  S
O1298      C1305   1.279   1_565  A
O1299     Cu1302   2.014       .  S
O1299      C1304   1.278   1_554  A
O1300     Cu1302   2.009       .  S
O1300      C1303   1.278       .  A
Cu1301    Cu1302   2.370       .  S
C1303      C1869   1.482       .  S
C1304      C2838   1.487   1_565  S
C1305      C1622   1.488       .  S
C1306      C2230   1.486       .  S
O1307     Cu1315   2.007   1_455  S
O1307      C1317   1.277       .  A
O1308     Cu1315   2.006       .  S
O1308      C1318   1.277       .  A
O1309     Cu1315   2.017       .  S
O1309      C1319   1.280       .  A
O1310     Cu1315   2.017   1_455  S
O1310      C1320   1.279   1_554  A
O1311     Cu1316   2.022   1_455  S
O1311      C1320   1.279   1_554  A
O1312     Cu1316   2.021       .  S
O1312      C1319   1.279       .  A
O1313     Cu1316   2.015       .  S
O1313      C1318   1.278       .  A
O1314     Cu1316   2.012   1_455  S
O1314      C1317   1.277       .  A
Cu1315    Cu1316   2.372       .  S
C1317      C2070   1.472       .  S
C1318      C2198   1.475   1_554  S
C1319      C1805   1.495       .  S
C1320      C2381   1.486       .  S
C1321      C1322   1.401       .  A
C1321      C1326   1.406       .  A
C1321      H1331   1.084       .  S
C1322      C1323   1.412       .  A
C1322      C1327   1.484       .  S
C1323      C1324   1.405       .  A
C1323      C1328   1.506       .  S
C1324      C1325   1.403       .  A
C1324      H1329   1.084       .  S
C1325      C1326   1.416       .  A
C1326      C1330   1.507       .  S
C1327      C1332   1.411       .  A
C1327      C1336   1.401       .  A
C1328      H1344   1.110       .  S
C1328      H1345   1.110       .  S
C1328      H1346   1.111       .  S
C1330      H1341   1.108       .  S
C1330      H1342   1.111       .  S
C1330      H1343   1.111       .  S
C1332      C1333   1.406       .  A
C1332      C1337   1.506       .  S
C1333      C1334   1.404       .  A
C1333      H1338   1.084       .  S
C1334      C1335   1.417       .  A
C1335      C1336   1.405       .  A
C1335      C1339   1.508       .  S
C1336      H1340   1.084       .  S
C1337      H1347   1.111       .  S
C1337      H1348   1.110       .  S
C1337      H1349   1.110       .  S
C1339      H1350   1.110       .  S
C1339      H1351   1.107       .  S
C1339      H1352   1.111       .  S
C1353      C1354   1.400       .  A
C1353      C1358   1.405       .  A
C1353      H1363   1.084       .  S
C1354      C1355   1.411       .  A
C1354      C1359   1.483       .  S
C1355      C1356   1.406       .  A
C1355      C1360   1.506       .  S
C1356      C1357   1.406       .  A
C1356      H1361   1.084       .  S
C1357      C1358   1.418       .  A
C1358      C1362   1.508       .  S
C1359      C1364   1.410       .  A
C1359      C1368   1.400       .  A
C1360      H1376   1.110       .  S
C1360      H1377   1.110       .  S
C1360      H1378   1.111       .  S
C1362      H1373   1.109       .  S
C1362      H1374   1.111       .  S
C1362      H1375   1.111       .  S
C1364      C1365   1.405       .  A
C1364      C1369   1.506       .  S
C1365      C1366   1.407       .  A
C1365      H1370   1.084       .  S
C1366      C1367   1.419       .  A
C1367      C1368   1.404       .  A
C1367      C1371   1.508       .  S
C1368      H1372   1.085       .  S
C1369      H1379   1.111       .  S
C1369      H1380   1.110       .  S
C1369      H1381   1.110       .  S
C1371      H1382   1.110       .  S
C1371      H1383   1.105       .  S
C1371      H1384   1.111       .  S
C1385      C1386   1.401       .  A
C1385      C1390   1.407       .  A
C1385      H1395   1.085       .  S
C1386      C1387   1.411       .  A
C1386      C1391   1.489       .  S
C1387      C1388   1.408       .  A
C1387      C1392   1.506       .  S
C1388      C1389   1.407       .  A
C1388      H1393   1.084       .  S
C1389      C1390   1.421       .  A
C1390      C1394   1.508       .  S
C1391      C1396   1.410       .  A
C1391      C1400   1.401       .  A
C1392      H1408   1.110       .  S
C1392      H1409   1.110       .  S
C1392      H1410   1.111       .  S
C1394      H1405   1.111       .  S
C1394      H1406   1.110       .  S
C1394      H1407   1.106       .  S
C1396      C1397   1.407       .  A
C1396      C1401   1.506       .  S
C1397      C1398   1.408       .  A
C1397      H1402   1.084       .  S
C1398      C1399   1.421       .  A
C1399      C1400   1.408       .  A
C1399      C1403   1.507       .  S
C1400      H1404   1.084       .  S
C1401      H1411   1.111       .  S
C1401      H1412   1.110       .  S
C1401      H1413   1.110       .  S
C1403      H1414   1.111       .  S
C1403      H1415   1.110       .  S
C1403      H1416   1.107       .  S
C1417      C1418   1.400       .  A
C1417      C1422   1.405       .  A
C1417      H1427   1.085       .  S
C1418      C1419   1.409       .  A
C1418      C1423   1.483       .  S
C1419      C1420   1.404       .  A
C1419      C1424   1.507       .  S
C1420      C1421   1.407       .  A
C1420      H1425   1.084       .  S
C1421      C1422   1.420       .  A
C1422      C1426   1.508       .  S
C1423      C1428   1.409       .  A
C1423      C1432   1.400       .  A
C1424      H1440   1.110       .  S
C1424      H1441   1.110       .  S
C1424      H1442   1.111       .  S
C1426      H1437   1.110       .  S
C1426      H1438   1.111       .  S
C1426      H1439   1.105       .  S
C1428      C1429   1.405       .  A
C1428      C1433   1.506       .  S
C1429      C1430   1.408       .  A
C1429      H1434   1.084       .  S
C1430      C1431   1.420       .  A
C1431      C1432   1.405       .  A
C1431      C1435   1.508       .  S
C1432      H1436   1.084       .  S
C1433      H1443   1.111       .  S
C1433      H1444   1.110       .  S
C1433      H1445   1.110       .  S
C1435      H1446   1.109       .  S
C1435      H1447   1.111       .  S
C1435      H1448   1.111       .  S
C1449      C1450   1.400       .  A
C1449      C1454   1.406       .  A
C1449      H1459   1.084       .  S
C1450      C1451   1.410       .  A
C1450      C1455   1.483       .  S
C1451      C1452   1.405       .  A
C1451      C1456   1.507       .  S
C1452      C1453   1.408       .  A
C1452      H1457   1.084       .  S
C1453      C1454   1.419       .  A
C1454      C1458   1.505       .  S
C1455      C1460   1.411       .  A
C1455      C1464   1.401       .  A
C1456      H1472   1.110       .  S
C1456      H1473   1.108       .  S
C1456      H1474   1.111       .  S
C1458      H1469   1.111       .  S
C1458      H1470   1.109       .  S
C1458      H1471   1.108   1_545  S
C1460      C1461   1.405       .  A
C1460      C1465   1.507       .  S
C1461      C1462   1.406       .  A
C1461      H1466   1.084       .  S
C1462      C1463   1.417       .  A
C1463      C1464   1.405       .  A
C1463      C1467   1.507       .  S
C1464      H1468   1.084       .  S
C1465      H1475   1.111       .  S
C1465      H1476   1.110       .  S
C1465      H1477   1.109       .  S
C1467      H1478   1.111       .  S
C1467      H1479   1.110       .  S
C1467      H1480   1.107       .  S
C1481      C1482   1.400       .  A
C1481      C1486   1.403       .  A
C1481      H1491   1.085       .  S
C1482      C1483   1.411       .  A
C1482      C1487   1.483       .  S
C1483      C1484   1.407       .  A
C1483      C1488   1.506       .  S
C1484      C1485   1.404       .  A
C1484      H1489   1.084       .  S
C1485      C1486   1.418       .  A
C1486      C1490   1.508       .  S
C1487      C1492   1.411       .  A
C1487      C1496   1.401       .  A
C1488      H1504   1.110       .  S
C1488      H1505   1.110       .  S
C1488      H1506   1.111       .  S
C1490      H1501   1.110       .  S
C1490      H1502   1.111       .  S
C1490      H1503   1.106       .  S
C1492      C1493   1.407       .  A
C1492      C1497   1.506       .  S
C1493      C1494   1.406       .  A
C1493      H1498   1.084       .  S
C1494      C1495   1.417       .  A
C1495      C1496   1.403       .  A
C1495      C1499   1.508       .  S
C1496      H1500   1.085       .  S
C1497      H1507   1.111       .  S
C1497      H1508   1.110       .  S
C1497      H1509   1.109       .  S
C1499      H1510   1.110       .  S
C1499      H1511   1.107   1_455  S
C1499      H1512   1.111       .  S
C1513      C1514   1.399       .  A
C1513      C1518   1.407       .  A
C1513      H1523   1.084       .  S
C1514      C1515   1.409       .  A
C1514      C1519   1.484       .  S
C1515      C1516   1.405       .  A
C1515      C1520   1.506       .  S
C1516      C1517   1.407       .  A
C1516      H1521   1.084       .  S
C1517      C1518   1.421       .  A
C1518      C1522   1.507       .  S
C1519      C1524   1.410       .  A
C1519      C1528   1.401       .  A
C1520      H1536   1.110       .  S
C1520      H1537   1.110       .  S
C1520      H1538   1.111       .  S
C1522      H1533   1.107       .  S
C1522      H1534   1.111       .  S
C1522      H1535   1.110       .  S
C1524      C1525   1.405       .  A
C1524      C1529   1.506       .  S
C1525      C1526   1.406       .  A
C1525      H1530   1.084       .  S
C1526      C1527   1.420       .  A
C1527      C1528   1.405       .  A
C1527      C1531   1.509       .  S
C1528      H1532   1.085       .  S
C1529      H1539   1.111       .  S
C1529      H1540   1.110       .  S
C1529      H1541   1.110       .  S
C1531      H1542   1.110       .  S
C1531      H1543   1.105       .  S
C1531      H1544   1.111       .  S
C1545      C1546   1.401       .  A
C1545      C1550   1.407       .  A
C1545      H1555   1.085       .  S
C1546      C1547   1.410       .  A
C1546      C1551   1.487       .  S
C1547      C1548   1.406       .  A
C1547      C1552   1.506       .  S
C1548      C1549   1.407       .  A
C1548      H1553   1.084       .  S
C1549      C1550   1.420       .  A
C1550      C1554   1.507       .  S
C1551      C1556   1.411       .  A
C1551      C1560   1.401       .  A
C1552      H1568   1.110       .  S
C1552      H1569   1.110       .  S
C1552      H1570   1.111       .  S
C1554      H1565   1.110       .  S
C1554      H1566   1.111       .  S
C1554      H1567   1.106       .  S
C1556      C1557   1.407       .  A
C1556      C1561   1.505       .  S
C1557      C1558   1.406       .  A
C1557      H1562   1.084       .  S
C1558      C1559   1.419       .  A
C1559      C1560   1.404       .  A
C1559      C1563   1.509       .  S
C1560      H1564   1.085       .  S
C1561      H1571   1.111       .  S
C1561      H1572   1.110       .  S
C1561      H1573   1.110       .  S
C1563      H1574   1.110       .  S
C1563      H1575   1.106       .  S
C1563      H1576   1.111       .  S
C1577      C1578   1.403       .  A
C1577      C1582   1.408       .  A
C1577      H1587   1.084       .  S
C1578      C1579   1.410       .  A
C1578      C1583   1.489       .  S
C1579      C1580   1.405       .  A
C1579      C1584   1.506       .  S
C1580      C1581   1.407       .  A
C1580      H1585   1.084       .  S
C1581      C1582   1.419       .  A
C1582      C1586   1.507       .  S
C1583      C1588   1.411       .  A
C1583      C1592   1.402       .  A
C1584      H1600   1.110       .  S
C1584      H1601   1.110       .  S
C1584      H1602   1.111       .  S
C1586      H1597   1.110       .  S
C1586      H1598   1.111       .  S
C1586      H1599   1.106       .  S
C1588      C1589   1.407       .  A
C1588      C1593   1.506       .  S
C1589      C1590   1.405       .  A
C1589      H1594   1.084       .  S
C1590      C1591   1.419       .  A
C1591      C1592   1.407       .  A
C1591      C1595   1.508       .  S
C1592      H1596   1.084       .  S
C1593      H1603   1.111       .  S
C1593      H1604   1.110       .  S
C1593      H1605   1.110       .  S
C1595      H1606   1.110       .  S
C1595      H1607   1.107       .  S
C1595      H1608   1.111       .  S
C1609      C1610   1.402       .  A
C1609      C1614   1.408       .  A
C1609      H1619   1.084       .  S
C1610      C1611   1.412       .  A
C1610      C1615   1.490       .  S
C1611      C1612   1.407       .  A
C1611      C1616   1.506       .  S
C1612      C1613   1.405       .  A
C1612      H1617   1.084       .  S
C1613      C1614   1.416       .  A
C1614      C1618   1.506       .  S
C1615      C1620   1.412       .  A
C1615      C1624   1.402       .  A
C1616      H1632   1.110       .  S
C1616      H1633   1.110       .  S
C1616      H1634   1.111       .  S
C1618      H1629   1.111       .  S
C1618      H1630   1.108       .  S
C1618      H1631   1.110       .  S
C1620      C1621   1.407       .  A
C1620      C1625   1.506       .  S
C1621      C1622   1.405       .  A
C1621      H1626   1.084       .  S
C1622      C1623   1.418       .  A
C1623      C1624   1.408       .  A
C1623      C1627   1.507       .  S
C1624      H1628   1.084       .  S
C1625      H1635   1.111       .  S
C1625      H1636   1.110       .  S
C1625      H1637   1.110       .  S
C1627      H1638   1.111       .  S
C1627      H1639   1.111       .  S
C1627      H1640   1.109       .  S
C1641      C1642   1.401       .  A
C1641      C1646   1.409       .  A
C1641      H1651   1.084       .  S
C1642      C1643   1.411       .  A
C1642      C1647   1.491       .  S
C1643      C1644   1.408       .  A
C1643      C1648   1.506       .  S
C1644      C1645   1.407       .  A
C1644      H1649   1.084       .  S
C1645      C1646   1.420       .  A
C1646      C1650   1.507       .  S
C1647      C1652   1.411       .  A
C1647      C1656   1.402       .  A
C1648      H1664   1.110       .  S
C1648      H1665   1.110       .  S
C1648      H1666   1.111       .  S
C1650      H1661   1.107       .  S
C1650      H1662   1.111       .  S
C1650      H1663   1.110       .  S
C1652      C1653   1.407       .  A
C1652      C1657   1.506       .  S
C1653      C1654   1.406       .  A
C1653      H1658   1.084       .  S
C1654      C1655   1.420       .  A
C1655      C1656   1.408       .  A
C1655      C1659   1.508       .  S
C1656      H1660   1.084       .  S
C1657      H1667   1.111       .  S
C1657      H1668   1.110       .  S
C1657      H1669   1.110       .  S
C1659      H1670   1.110       .  S
C1659      H1671   1.106       .  S
C1659      H1672   1.111       .  S
C1673      C1674   1.399       .  A
C1673      C1678   1.404       .  A
C1673      H1683   1.084       .  S
C1674      C1675   1.410       .  A
C1674      C1679   1.482       .  S
C1675      C1676   1.405       .  A
C1675      C1680   1.506       .  S
C1676      C1677   1.406       .  A
C1676      H1681   1.084       .  S
C1677      C1678   1.420       .  A
C1678      C1682   1.509       .  S
C1679      C1684   1.408       .  A
C1679      C1688   1.399       .  A
C1680      H1696   1.110       .  S
C1680      H1697   1.110       .  S
C1680      H1698   1.111       .  S
C1682      H1693   1.111       .  S
C1682      H1694   1.109       .  S
C1682      H1695   1.111       .  S
C1684      C1685   1.405       .  A
C1684      C1689   1.506       .  S
C1685      C1686   1.409       .  A
C1685      H1690   1.084       .  S
C1686      C1687   1.421       .  A
C1687      C1688   1.405       .  A
C1687      C1691   1.506       .  S
C1688      H1692   1.084       .  S
C1689      H1699   1.111       .  S
C1689      H1700   1.110       .  S
C1689      H1701   1.110       .  S
C1691      H1702   1.111       .  S
C1691      H1703   1.110       .  S
C1691      H1704   1.107       .  S
C1705      C1706   1.401       .  A
C1705      C1710   1.405       .  A
C1705      H1715   1.084       .  S
C1706      C1707   1.410       .  A
C1706      C1711   1.482       .  S
C1707      C1708   1.403       .  A
C1707      C1712   1.506       .  S
C1708      C1709   1.404       .  A
C1708      H1713   1.084       .  S
C1709      C1710   1.419       .  A
C1710      C1714   1.509       .  S
C1711      C1716   1.409       .  A
C1711      C1720   1.400       .  A
C1712      H1728   1.110       .  S
C1712      H1729   1.110       .  S
C1712      H1730   1.111       .  S
C1714      H1725   1.111       .  S
C1714      H1726   1.110       .  S
C1714      H1727   1.107       .  S
C1716      C1717   1.404       .  A
C1716      C1721   1.506       .  S
C1717      C1718   1.405       .  A
C1717      H1722   1.084       .  S
C1718      C1719   1.419       .  A
C1719      C1720   1.406       .  A
C1719      C1723   1.507       .  S
C1720      H1724   1.084       .  S
C1721      H1731   1.111       .  S
C1721      H1732   1.110       .  S
C1721      H1733   1.110       .  S
C1723      H1734   1.111       .  S
C1723      H1735   1.110       .  S
C1723      H1736   1.107       .  S
C1737      C1738   1.401       .  A
C1737      C1742   1.404       .  A
C1737      H1747   1.084       .  S
C1738      C1739   1.409       .  A
C1738      C1743   1.481       .  S
C1739      C1740   1.404       .  A
C1739      C1744   1.506       .  S
C1740      C1741   1.406       .  A
C1740      H1745   1.084       .  S
C1741      C1742   1.415       .  A
C1742      C1746   1.507       .  S
C1743      C1748   1.411       .  A
C1743      C1752   1.401       .  A
C1744      H1760   1.110       .  S
C1744      H1761   1.110       .  S
C1744      H1762   1.111       .  S
C1746      H1757   1.107       .  S
C1746      H1758   1.111       .  S
C1746      H1759   1.110       .  S
C1748      C1749   1.405       .  A
C1748      C1753   1.506       .  S
C1749      C1750   1.403       .  A
C1749      H1754   1.084       .  S
C1750      C1751   1.416       .  A
C1751      C1752   1.403       .  A
C1751      C1755   1.508       .  S
C1752      H1756   1.085       .  S
C1753      H1763   1.111       .  S
C1753      H1764   1.110       .  S
C1753      H1765   1.110       .  S
C1755      H1766   1.110       .  S
C1755      H1767   1.107       .  S
C1755      H1768   1.111       .  S
C1769      C1770   1.401       .  A
C1769      C1774   1.406       .  A
C1769      H1779   1.085       .  S
C1770      C1771   1.410       .  A
C1770      C1775   1.487       .  S
C1771      C1772   1.406       .  A
C1771      C1776   1.506       .  S
C1772      C1773   1.407       .  A
C1772      H1777   1.084       .  S
C1773      C1774   1.420       .  A
C1774      C1778   1.508       .  S
C1775      C1780   1.410       .  A
C1775      C1784   1.402       .  A
C1776      H1792   1.110       .  S
C1776      H1793   1.110       .  S
C1776      H1794   1.111       .  S
C1778      H1789   1.110       .  S
C1778      H1790   1.111       .  S
C1778      H1791   1.105       .  S
C1780      C1781   1.406       .  A
C1780      C1785   1.506       .  S
C1781      C1782   1.406       .  A
C1781      H1786   1.084       .  S
C1782      C1783   1.419       .  A
C1783      C1784   1.406       .  A
C1783      C1787   1.508       .  S
C1784      H1788   1.085       .  S
C1785      H1795   1.111       .  S
C1785      H1796   1.110       .  S
C1785      H1797   1.110       .  S
C1787      H1798   1.110       .  S
C1787      H1799   1.106       .  S
C1787      H1800   1.111       .  S
C1801      C1802   1.402       .  A
C1801      C1806   1.409       .  A
C1801      H1811   1.084       .  S
C1802      C1803   1.412       .  A
C1802      C1807   1.490       .  S
C1803      C1804   1.405       .  A
C1803      C1808   1.507       .  S
C1804      C1805   1.408       .  A
C1804      H1809   1.084       .  S
C1805      C1806   1.421       .  A
C1806      C1810   1.507       .  S
C1807      C1812   1.412       .  A
C1807      C1816   1.401       .  A
C1808      H1824   1.109       .  S
C1808      H1825   1.110       .  S
C1808      H1826   1.111       .  S
C1810      H1821   1.110       .  S
C1810      H1822   1.111       .  S
C1810      H1823   1.111       .  S
C1812      C1813   1.408       .  A
C1812      C1817   1.506       .  S
C1813      C1814   1.406       .  A
C1813      H1818   1.084       .  S
C1814      C1815   1.420       .  A
C1815      C1816   1.404       .  A
C1815      C1819   1.508       .  S
C1816      H1820   1.085       .  S
C1817      H1827   1.111       .  S
C1817      H1828   1.109       .  S
C1817      H1829   1.110       .  S
C1819      H1830   1.110       .  S
C1819      H1831   1.105       .  S
C1819      H1832   1.111       .  S
C1833      C1834   1.400       .  A
C1833      C1838   1.405       .  A
C1833      H1843   1.084       .  S
C1834      C1835   1.410       .  A
C1834      C1839   1.487       .  S
C1835      C1836   1.405       .  A
C1835      C1840   1.507       .  S
C1836      C1837   1.410       .  A
C1836      H1841   1.083       .  S
C1837      C1838   1.424       .  A
C1838      C1842   1.509       .  S
C1839      C1844   1.411       .  A
C1839      C1848   1.401       .  A
C1840      H1856   1.109       .  S
C1840      H1857   1.110       .  S
C1840      H1858   1.111       .  S
C1842      H1853   1.110       .  S
C1842      H1854   1.111       .  S
C1842      H1855   1.110       .  S
C1844      C1845   1.404       .  A
C1844      C1849   1.508       .  S
C1845      C1846   1.406       .  A
C1845      H1850   1.083       .  S
C1846      C1847   1.420       .  A
C1847      C1848   1.407       .  A
C1847      C1851   1.507       .  S
C1848      H1852   1.084       .  S
C1849      H1859   1.111       .  S
C1849      H1860   1.109       .  S
C1849      H1861   1.111       .  S
C1851      H1862   1.106       .  S
C1851      H1863   1.110       .  S
C1851      H1864   1.111       .  S
C1865      C1866   1.401       .  A
C1865      C1870   1.404       .  A
C1865      H1875   1.085       .  S
C1866      C1867   1.410       .  A
C1866      C1871   1.484       .  S
C1867      C1868   1.406       .  A
C1867      C1872   1.506       .  S
C1868      C1869   1.406       .  A
C1868      H1873   1.084       .  S
C1869      C1870   1.419       .  A
C1870      C1874   1.509       .  S
C1871      C1876   1.410       .  A
C1871      C1880   1.400       .  A
C1872      H1888   1.110       .  S
C1872      H1889   1.110       .  S
C1872      H1890   1.111       .  S
C1874      H1885   1.111       .  S
C1874      H1886   1.110       .  S
C1874      H1887   1.106       .  S
C1876      C1877   1.405       .  A
C1876      C1881   1.506       .  S
C1877      C1878   1.407       .  A
C1877      H1882   1.084       .  S
C1878      C1879   1.419       .  A
C1879      C1880   1.405       .  A
C1879      C1883   1.508       .  S
C1880      H1884   1.085       .  S
C1881      H1891   1.111       .  S
C1881      H1892   1.110       .  S
C1881      H1893   1.110       .  S
C1883      H1894   1.111       .  S
C1883      H1895   1.105       .  S
C1883      H1896   1.110       .  S
C1897      C1898   1.401       .  A
C1897      C1902   1.405       .  A
C1897      H1907   1.085       .  S
C1898      C1899   1.411       .  A
C1898      C1903   1.489       .  S
C1899      C1900   1.408       .  A
C1899      C1904   1.505       .  S
C1900      C1901   1.406       .  A
C1900      H1905   1.084       .  S
C1901      C1902   1.419       .  A
C1902      C1906   1.508       .  S
C1903      C1908   1.411       .  A
C1903      C1912   1.402       .  A
C1904      H1920   1.110       .  S
C1904      H1921   1.110       .  S
C1904      H1922   1.111       .  S
C1906      H1917   1.111       .  S
C1906      H1918   1.110       .  S
C1906      H1919   1.105       .  S
C1908      C1909   1.405       .  A
C1908      C1913   1.507       .  S
C1909      C1910   1.406       .  A
C1909      H1914   1.084       .  S
C1910      C1911   1.420       .  A
C1911      C1912   1.409       .  A
C1911      C1915   1.508       .  S
C1912      H1916   1.084       .  S
C1913      H1923   1.111       .  S
C1913      H1924   1.110       .  S
C1913      H1925   1.110       .  S
C1915      H1926   1.111       .  S
C1915      H1927   1.106       .  S
C1915      H1928   1.110       .  S
C1929      C1930   1.402       .  A
C1929      C1934   1.406       .  A
C1929      H1939   1.085       .  S
C1930      C1931   1.412       .  A
C1930      C1935   1.489       .  S
C1931      C1932   1.407       .  A
C1931      C1936   1.506       .  S
C1932      C1933   1.405       .  A
C1932      H1937   1.084       .  S
C1933      C1934   1.419       .  A
C1934      C1938   1.508       .  S
C1935      C1940   1.413       .  A
C1935      C1944   1.403       .  A
C1936      H1952   1.110       .  S
C1936      H1953   1.110       .  S
C1936      H1954   1.111       .  S
C1938      H1949   1.110       .  S
C1938      H1950   1.111       .  S
C1938      H1951   1.106       .  S
C1940      C1941   1.408       .  A
C1940      C1945   1.506       .  S
C1941      C1942   1.404       .  A
C1941      H1946   1.084       .  S
C1942      C1943   1.416       .  A
C1943      C1944   1.405       .  A
C1943      C1947   1.508       .  S
C1944      H1948   1.084       .  S
C1945      H1955   1.111       .  S
C1945      H1956   1.110       .  S
C1945      H1957   1.110       .  S
C1947      H1958   1.110       .  S
C1947      H1959   1.108       .  S
C1947      H1960   1.111       .  S
C1961      C1962   1.400       .  A
C1961      C1966   1.404       .  A
C1961      H1971   1.085       .  S
C1962      C1963   1.412       .  A
C1962      C1967   1.486       .  S
C1963      C1964   1.408       .  A
C1963      C1968   1.506       .  S
C1964      C1965   1.404       .  A
C1964      H1969   1.084       .  S
C1965      C1966   1.417       .  A
C1966      C1970   1.508       .  S
C1967      C1972   1.412       .  A
C1967      C1976   1.402       .  A
C1968      H1984   1.110       .  S
C1968      H1985   1.110       .  S
C1968      H1986   1.111       .  S
C1970      H1981   1.110       .  S
C1970      H1982   1.111       .  S
C1970      H1983   1.106       .  S
C1972      C1973   1.407       .  A
C1972      C1977   1.506       .  S
C1973      C1974   1.405       .  A
C1973      H1978   1.084       .  S
C1974      C1975   1.417       .  A
C1975      C1976   1.405       .  A
C1975      C1979   1.508       .  S
C1976      H1980   1.084       .  S
C1977      H1987   1.111       .  S
C1977      H1988   1.110       .  S
C1977      H1989   1.110       .  S
C1979      H1990   1.110       .  S
C1979      H1991   1.107       .  S
C1979      H1992   1.111       .  S
C1993      C1994   1.398       .  A
C1993      C1998   1.404       .  A
C1993      H2003   1.085       .  S
C1994      C1995   1.409       .  A
C1994      C1999   1.484       .  S
C1995      C1996   1.406       .  A
C1995      C2000   1.506       .  S
C1996      C1997   1.408       .  A
C1996      H2001   1.084       .  S
C1997      C1998   1.424       .  A
C1998      C2002   1.509       .  S
C1999      C2004   1.410       .  A
C1999      C2008   1.400       .  A
C2000      H2016   1.110       .  S
C2000      H2017   1.110       .  S
C2000      H2018   1.111       .  S
C2002      H2013   1.110       .  S
C2002      H2014   1.111       .  S
C2002      H2015   1.101       .  S
C2004      C2005   1.406       .  A
C2004      C2009   1.506       .  S
C2005      C2006   1.407       .  A
C2005      H2010   1.084       .  S
C2006      C2007   1.420       .  A
C2007      C2008   1.406       .  A
C2007      C2011   1.507       .  S
C2008      H2012   1.084       .  S
C2009      H2019   1.111       .  S
C2009      H2020   1.110       .  S
C2009      H2021   1.110       .  S
C2011      H2022   1.107       .  S
C2011      H2023   1.110       .  S
C2011      H2024   1.111       .  S
C2025      C2026   1.401       .  A
C2025      C2030   1.405       .  A
C2025      H2035   1.084       .  S
C2026      C2027   1.411       .  A
C2026      C2031   1.486       .  S
C2027      C2028   1.406       .  A
C2027      C2032   1.506       .  S
C2028      C2029   1.406       .  A
C2028      H2033   1.084       .  S
C2029      C2030   1.418       .  A
C2030      C2034   1.507       .  S
C2031      C2036   1.412       .  A
C2031      C2040   1.402       .  A
C2032      H2048   1.110       .  S
C2032      H2049   1.110       .  S
C2032      H2050   1.111       .  S
C2034      H2045   1.107       .  S
C2034      H2046   1.111       .  S
C2034      H2047   1.110       .  S
C2036      C2037   1.407       .  A
C2036      C2041   1.506       .  S
C2037      C2038   1.404       .  A
C2037      H2042   1.084       .  S
C2038      C2039   1.416       .  A
C2039      C2040   1.403       .  A
C2039      C2043   1.508       .  S
C2040      H2044   1.085       .  S
C2041      H2051   1.111       .  S
C2041      H2052   1.110       .  S
C2041      H2053   1.110       .  S
C2043      H2054   1.110       .  S
C2043      H2055   1.107       .  S
C2043      H2056   1.111       .  S
C2057      C2058   1.400       .  A
C2057      C2062   1.402       .  A
C2057      H2067   1.085       .  S
C2058      C2059   1.410       .  A
C2058      C2063   1.479       .  S
C2059      C2060   1.404       .  A
C2059      C2064   1.506       .  S
C2060      C2061   1.403       .  A
C2060      H2065   1.084       .  S
C2061      C2062   1.417       .  A
C2062      C2066   1.508       .  S
C2063      C2068   1.411       .  A
C2063      C2072   1.400       .  A
C2064      H2080   1.110       .  S
C2064      H2081   1.110       .  S
C2064      H2082   1.111       .  S
C2066      H2077   1.110       .  S
C2066      H2078   1.111       .  S
C2066      H2079   1.107       .  S
C2068      C2069   1.404       .  A
C2068      C2073   1.506       .  S
C2069      C2070   1.403       .  A
C2069      H2074   1.084       .  S
C2070      C2071   1.416       .  A
C2071      C2072   1.402       .  A
C2071      C2075   1.508       .  S
C2072      H2076   1.085       .  S
C2073      H2083   1.111       .  S
C2073      H2084   1.110       .  S
C2073      H2085   1.110       .  S
C2075      H2086   1.110       .  S
C2075      H2087   1.107       .  S
C2075      H2088   1.110       .  S
C2089      C2090   1.402       .  A
C2089      C2094   1.408       .  A
C2089      H2099   1.084       .  S
C2090      C2091   1.411       .  A
C2090      C2095   1.489       .  S
C2091      C2092   1.406       .  A
C2091      C2096   1.506       .  S
C2092      C2093   1.406       .  A
C2092      H2097   1.084       .  S
C2093      C2094   1.419       .  A
C2094      C2098   1.507       .  S
C2095      C2100   1.412       .  A
C2095      C2104   1.402       .  A
C2096      H2112   1.110       .  S
C2096      H2113   1.110       .  S
C2096      H2114   1.111       .  S
C2098      H2109   1.110       .  S
C2098      H2110   1.111       .  S
C2098      H2111   1.106       .  S
C2100      C2101   1.408       .  A
C2100      C2105   1.506       .  S
C2101      C2102   1.405       .  A
C2101      H2106   1.084       .  S
C2102      C2103   1.419       .  A
C2103      C2104   1.406       .  A
C2103      C2107   1.509       .  S
C2104      H2108   1.084       .  S
C2105      H2115   1.111       .  S
C2105      H2116   1.110       .  S
C2105      H2117   1.110       .  S
C2107      H2118   1.110       .  S
C2107      H2119   1.106       .  S
C2107      H2120   1.111       .  S
C2121      C2122   1.400       .  A
C2121      C2126   1.406       .  A
C2121      H2131   1.084       .  S
C2122      C2123   1.410       .  A
C2122      C2127   1.483       .  S
C2123      C2124   1.404       .  A
C2123      C2128   1.507       .  S
C2124      C2125   1.406       .  A
C2124      H2129   1.084       .  S
C2125      C2126   1.419       .  A
C2126      C2130   1.507       .  S
C2127      C2132   1.411       .  A
C2127      C2136   1.399       .  A
C2128      H2144   1.110       .  S
C2128      H2145   1.110       .  S
C2128      H2146   1.111       .  S
C2130      H2141   1.107       .  S
C2130      H2142   1.111       .  S
C2130      H2143   1.110       .  S
C2132      C2133   1.406       .  A
C2132      C2137   1.506       .  S
C2133      C2134   1.405       .  A
C2133      H2138   1.084       .  S
C2134      C2135   1.417       .  A
C2135      C2136   1.404       .  A
C2135      C2139   1.505       .  S
C2136      H2140   1.084       .  S
C2137      H2147   1.111       .  S
C2137      H2148   1.110       .  S
C2137      H2149   1.110       .  S
C2139      H2150   1.109       .  S
C2139      H2151   1.109       .  S
C2139      H2152   1.111       .  S
C2153      C2154   1.401       .  A
C2153      C2158   1.404       .  A
C2153      H2163   1.085       .  S
C2154      C2155   1.410       .  A
C2154      C2159   1.482       .  S
C2155      C2156   1.404       .  A
C2155      C2160   1.506       .  S
C2156      C2157   1.405       .  A
C2156      H2161   1.084       .  S
C2157      C2158   1.418       .  A
C2158      C2162   1.508       .  S
C2159      C2164   1.410       .  A
C2159      C2168   1.401       .  A
C2160      H2176   1.110       .  S
C2160      H2177   1.110       .  S
C2160      H2178   1.111       .  S
C2162      H2173   1.111       .  S
C2162      H2174   1.110       .  S
C2162      H2175   1.106       .  S
C2164      C2165   1.403       .  A
C2164      C2169   1.506       .  S
C2165      C2166   1.404       .  A
C2165      H2170   1.084       .  S
C2166      C2167   1.418       .  A
C2167      C2168   1.407       .  A
C2167      C2171   1.507       .  S
C2168      H2172   1.084       .  S
C2169      H2179   1.111       .  S
C2169      H2180   1.110       .  S
C2169      H2181   1.110       .  S
C2171      H2182   1.111       .  S
C2171      H2183   1.110       .  S
C2171      H2184   1.107       .  S
C2185      C2186   1.400       .  A
C2185      C2190   1.404       .  A
C2185      H2195   1.084       .  S
C2186      C2187   1.411       .  A
C2186      C2191   1.482       .  S
C2187      C2188   1.406       .  A
C2187      C2192   1.506       .  S
C2188      C2189   1.404       .  A
C2188      H2193   1.084       .  S
C2189      C2190   1.416       .  A
C2190      C2194   1.507       .  S
C2191      C2196   1.411       .  A
C2191      C2200   1.401       .  A
C2192      H2208   1.110       .  S
C2192      H2209   1.110       .  S
C2192      H2210   1.111       .  S
C2194      H2205   1.108       .  S
C2194      H2206   1.111       .  S
C2194      H2207   1.110       .  S
C2196      C2197   1.405       .  A
C2196      C2201   1.506       .  S
C2197      C2198   1.403       .  A
C2197      H2202   1.084       .  S
C2198      C2199   1.416       .  A
C2199      C2200   1.403       .  A
C2199      C2203   1.509   1_556  S
C2200      H2204   1.085       .  S
C2201      H2211   1.111       .  S
C2201      H2212   1.110       .  S
C2201      H2213   1.109       .  S
C2203      H2214   1.110       .  S
C2203      H2215   1.107       .  S
C2203      H2216   1.111       .  S
C2217      C2218   1.401       .  A
C2217      C2222   1.406       .  A
C2217      H2227   1.084       .  S
C2218      C2219   1.411       .  A
C2218      C2223   1.487       .  S
C2219      C2220   1.406       .  A
C2219      C2224   1.506       .  S
C2220      C2221   1.406       .  A
C2220      H2225   1.084       .  S
C2221      C2222   1.419       .  A
C2222      C2226   1.508       .  S
C2223      C2228   1.410       .  A
C2223      C2232   1.402       .  A
C2224      H2240   1.110       .  S
C2224      H2241   1.110       .  S
C2224      H2242   1.111       .  S
C2226      H2237   1.110       .  S
C2226      H2238   1.111       .  S
C2226      H2239   1.106       .  S
C2228      C2229   1.406       .  A
C2228      C2233   1.506       .  S
C2229      C2230   1.406       .  A
C2229      H2234   1.084       .  S
C2230      C2231   1.419       .  A
C2231      C2232   1.407       .  A
C2231      C2235   1.508   1_556  S
C2232      H2236   1.084       .  S
C2233      H2243   1.111       .  S
C2233      H2244   1.110       .  S
C2233      H2245   1.110       .  S
C2235      H2246   1.110   1_554  S
C2235      H2247   1.106       .  S
C2235      H2248   1.111       .  S
C2249      C2250   1.400       .  A
C2249      C2254   1.403       .  A
C2249      H2259   1.085       .  S
C2250      C2251   1.410       .  A
C2250      C2255   1.482       .  S
C2251      C2252   1.406       .  A
C2251      C2256   1.506       .  S
C2252      C2253   1.405       .  A
C2252      H2257   1.084       .  S
C2253      C2254   1.417       .  A
C2254      C2258   1.508       .  S
C2255      C2260   1.409       .  A
C2255      C2264   1.401       .  A
C2256      H2272   1.110       .  S
C2256      H2273   1.110       .  S
C2256      H2274   1.111       .  S
C2258      H2269   1.111       .  S
C2258      H2270   1.110       .  S
C2258      H2271   1.106       .  S
C2260      C2261   1.403       .  A
C2260      C2265   1.506       .  S
C2261      C2262   1.406       .  A
C2261      H2266   1.084       .  S
C2262      C2263   1.418       .  A
C2263      C2264   1.405       .  A
C2263      C2267   1.507       .  S
C2264      H2268   1.085       .  S
C2265      H2275   1.111       .  S
C2265      H2276   1.110       .  S
C2265      H2277   1.110       .  S
C2267      H2278   1.111       .  S
C2267      H2279   1.106       .  S
C2267      H2280   1.110       .  S
C2281      C2282   1.400       .  A
C2281      C2286   1.405       .  A
C2281      H2291   1.085       .  S
C2282      C2283   1.410       .  A
C2282      C2287   1.485       .  S
C2283      C2284   1.406       .  A
C2283      C2288   1.506       .  S
C2284      C2285   1.407       .  A
C2284      H2289   1.084       .  S
C2285      C2286   1.420       .  A
C2286      C2290   1.509       .  S
C2287      C2292   1.409       .  A
C2287      C2296   1.399       .  A
C2288      H2304   1.110       .  S
C2288      H2305   1.110       .  S
C2288      H2306   1.111       .  S
C2290      H2301   1.111       .  S
C2290      H2302   1.110       .  S
C2290      H2303   1.106       .  S
C2292      C2293   1.406       .  A
C2292      C2297   1.506       .  S
C2293      C2294   1.408       .  A
C2293      H2298   1.084       .  S
C2294      C2295   1.422       .  A
C2295      C2296   1.407       .  A
C2295      C2299   1.507       .  S
C2296      H2300   1.084       .  S
C2297      H2307   1.111       .  S
C2297      H2308   1.110       .  S
C2297      H2309   1.110       .  S
C2299      H2310   1.111       .  S
C2299      H2311   1.110       .  S
C2299      H2312   1.107       .  S
C2313      C2314   1.402       .  A
C2313      C2318   1.408       .  A
C2313      H2323   1.084       .  S
C2314      C2315   1.411       .  A
C2314      C2319   1.490       .  S
C2315      C2316   1.407       .  A
C2315      C2320   1.506       .  S
C2316      C2317   1.406       .  A
C2316      H2321   1.084       .  S
C2317      C2318   1.419       .  A
C2318      C2322   1.507       .  S
C2319      C2324   1.411       .  A
C2319      C2328   1.401       .  A
C2320      H2336   1.110       .  S
C2320      H2337   1.110       .  S
C2320      H2338   1.111       .  S
C2322      H2333   1.111       .  S
C2322      H2334   1.110       .  S
C2322      H2335   1.106       .  S
C2324      C2325   1.408       .  A
C2324      C2329   1.506       .  S
C2325      C2326   1.407       .  A
C2325      H2330   1.084       .  S
C2326      C2327   1.421       .  A
C2327      C2328   1.406       .  A
C2327      C2331   1.509       .  S
C2328      H2332   1.085       .  S
C2329      H2339   1.111       .  S
C2329      H2340   1.110       .  S
C2329      H2341   1.110       .  S
C2331      H2342   1.111       .  S
C2331      H2343   1.106       .  S
C2331      H2344   1.110       .  S
C2345      C2346   1.403       .  A
C2345      C2350   1.405       .  A
C2345      H2355   1.084       .  S
C2346      C2347   1.412       .  A
C2346      C2351   1.486       .  S
C2347      C2348   1.404       .  A
C2347      C2352   1.507       .  S
C2348      C2349   1.404       .  A
C2348      H2353   1.084       .  S
C2349      C2350   1.415       .  A
C2350      C2354   1.507       .  S
C2351      C2356   1.410       .  A
C2351      C2360   1.402       .  A
C2352      H2368   1.109       .  S
C2352      H2369   1.110       .  S
C2352      H2370   1.111       .  S
C2354      H2365   1.111       .  S
C2354      H2366   1.108       .  S
C2354      H2367   1.111       .  S
C2356      C2357   1.403       .  A
C2356      C2361   1.507       .  S
C2357      C2358   1.407       .  A
C2357      H2362   1.084       .  S
C2358      C2359   1.419       .  A
C2359      C2360   1.407       .  A
C2359      C2363   1.506       .  S
C2360      H2364   1.084       .  S
C2361      H2371   1.111       .  S
C2361      H2372   1.109       .  S
C2361      H2373   1.110       .  S
C2363      H2374   1.111       .  S
C2363      H2375   1.106       .  S
C2363      H2376   1.110       .  S
C2377      C2378   1.402       .  A
C2377      C2382   1.407       .  A
C2377      H2387   1.084       .  S
C2378      C2379   1.412       .  A
C2378      C2383   1.490       .  S
C2379      C2380   1.407       .  A
C2379      C2384   1.506       .  S
C2380      C2381   1.405       .  A
C2380      H2385   1.084       .  S
C2381      C2382   1.420       .  A
C2382      C2386   1.508   1_556  S
C2383      C2388   1.412       .  A
C2383      C2392   1.401       .  A
C2384      H2400   1.110       .  S
C2384      H2401   1.110       .  S
C2384      H2402   1.111       .  S
C2386      H2397   1.111       .  S
C2386      H2398   1.110   1_554  S
C2386      H2399   1.106       .  S
C2388      C2389   1.407       .  A
C2388      C2393   1.506       .  S
C2389      C2390   1.407       .  A
C2389      H2394   1.084       .  S
C2390      C2391   1.420       .  A
C2391      C2392   1.408       .  A
C2391      C2395   1.507       .  S
C2392      H2396   1.084       .  S
C2393      H2403   1.111       .  S
C2393      H2404   1.110       .  S
C2393      H2405   1.110       .  S
C2395      H2406   1.111       .  S
C2395      H2407   1.110       .  S
C2395      H2408   1.106       .  S
C2409      C2410   1.400       .  A
C2409      C2414   1.406       .  A
C2409      H2419   1.084       .  S
C2410      C2411   1.411       .  A
C2410      C2415   1.484       .  S
C2411      C2412   1.406       .  A
C2411      C2416   1.506       .  S
C2412      C2413   1.405       .  A
C2412      H2417   1.084       .  S
C2413      C2414   1.418       .  A
C2414      C2418   1.507       .  S
C2415      C2420   1.411       .  A
C2415      C2424   1.401       .  A
C2416      H2432   1.110       .  S
C2416      H2433   1.110       .  S
C2416      H2434   1.111       .  S
C2418      H2429   1.107       .  S
C2418      H2430   1.111       .  S
C2418      H2431   1.110       .  S
C2420      C2421   1.405       .  A
C2420      C2425   1.506       .  S
C2421      C2422   1.404       .  A
C2421      H2426   1.084       .  S
C2422      C2423   1.417       .  A
C2423      C2424   1.405       .  A
C2423      C2427   1.508       .  S
C2424      H2428   1.084       .  S
C2425      H2435   1.111       .  S
C2425      H2436   1.110       .  S
C2425      H2437   1.110       .  S
C2427      H2438   1.110       .  S
C2427      H2439   1.107       .  S
C2427      H2440   1.110       .  S
C2441      C2442   1.402       .  A
C2441      C2446   1.406       .  A
C2441      H2451   1.084       .  S
C2442      C2443   1.411       .  A
C2442      C2447   1.484       .  S
C2443      C2444   1.405       .  A
C2443      C2448   1.506       .  S
C2444      C2445   1.405       .  A
C2444      H2449   1.084       .  S
C2445      C2446   1.415       .  A
C2446      C2450   1.507       .  S
C2447      C2452   1.411       .  A
C2447      C2456   1.402       .  A
C2448      H2464   1.110       .  S
C2448      H2465   1.110       .  S
C2448      H2466   1.111       .  S
C2450      H2461   1.111       .  S
C2450      H2462   1.108       .  S
C2450      H2463   1.110       .  S
C2452      C2453   1.405       .  A
C2452      C2457   1.506       .  S
C2453      C2454   1.403       .  A
C2453      H2458   1.084       .  S
C2454      C2455   1.415       .  A
C2455      C2456   1.406       .  A
C2455      C2459   1.507       .  S
C2456      H2460   1.084       .  S
C2457      H2467   1.111       .  S
C2457      H2468   1.110       .  S
C2457      H2469   1.110       .  S
C2459      H2470   1.111       .  S
C2459      H2471   1.111       .  S
C2459      H2472   1.109       .  S
C2473      C2474   1.403       .  A
C2473      C2478   1.408       .  A
C2473      H2483   1.084       .  S
C2474      C2475   1.413       .  A
C2474      C2479   1.490       .  S
C2475      C2476   1.406       .  A
C2475      C2480   1.506       .  S
C2476      C2477   1.404       .  A
C2476      H2481   1.084       .  S
C2477      C2478   1.417       .  A
C2478      C2482   1.507       .  S
C2479      C2484   1.412       .  A
C2479      C2488   1.402       .  A
C2480      H2496   1.110       .  S
C2480      H2497   1.110       .  S
C2480      H2498   1.111       .  S
C2482      H2493   1.111       .  S
C2482      H2494   1.108       .  S
C2482      H2495   1.110       .  S
C2484      C2485   1.407       .  A
C2484      C2489   1.506       .  S
C2485      C2486   1.406       .  A
C2485      H2490   1.084       .  S
C2486      C2487   1.418       .  A
C2487      C2488   1.408       .  A
C2487      C2491   1.507       .  S
C2488      H2492   1.084       .  S
C2489      H2499   1.111       .  S
C2489      H2500   1.110       .  S
C2489      H2501   1.110       .  S
C2491      H2502   1.111       .  S
C2491      H2503   1.111       .  S
C2491      H2504   1.109       .  S
C2505      C2506   1.400       .  A
C2505      C2510   1.406       .  A
C2505      H2515   1.084       .  S
C2506      C2507   1.410       .  A
C2506      C2511   1.485       .  S
C2507      C2508   1.406       .  A
C2507      C2512   1.506       .  S
C2508      C2509   1.406       .  A
C2508      H2513   1.084       .  S
C2509      C2510   1.419       .  A
C2510      C2514   1.507       .  S
C2511      C2516   1.411       .  A
C2511      C2520   1.401       .  A
C2512      H2528   1.110       .  S
C2512      H2529   1.110       .  S
C2512      H2530   1.111       .  S
C2514      H2525   1.107       .  S
C2514      H2526   1.111       .  S
C2514      H2527   1.110       .  S
C2516      C2517   1.407       .  A
C2516      C2521   1.506       .  S
C2517      C2518   1.406       .  A
C2517      H2522   1.084       .  S
C2518      C2519   1.418       .  A
C2519      C2520   1.404       .  A
C2519      C2523   1.508       .  S
C2520      H2524   1.085       .  S
C2521      H2531   1.111       .  S
C2521      H2532   1.110       .  S
C2521      H2533   1.110       .  S
C2523      H2534   1.110       .  S
C2523      H2535   1.107       .  S
C2523      H2536   1.111       .  S
C2537      C2538   1.400       .  A
C2537      C2542   1.405       .  A
C2537      H2547   1.084       .  S
C2538      C2539   1.411       .  A
C2538      C2543   1.481       .  S
C2539      C2540   1.405       .  A
C2539      C2544   1.506       .  S
C2540      C2541   1.404       .  A
C2540      H2545   1.084       .  S
C2541      C2542   1.417       .  A
C2542      C2546   1.507       .  S
C2543      C2548   1.410       .  A
C2543      C2552   1.400       .  A
C2544      H2560   1.110       .  S
C2544      H2561   1.110       .  S
C2544      H2562   1.111       .  S
C2546      H2557   1.107       .  S
C2546      H2558   1.111       .  S
C2546      H2559   1.110       .  S
C2548      C2549   1.404       .  A
C2548      C2553   1.506       .  S
C2549      C2550   1.405       .  A
C2549      H2554   1.084       .  S
C2550      C2551   1.419       .  A
C2551      C2552   1.404       .  A
C2551      C2555   1.509       .  S
C2552      H2556   1.085       .  S
C2553      H2563   1.111       .  S
C2553      H2564   1.110       .  S
C2553      H2565   1.110       .  S
C2555      H2566   1.110       .  S
C2555      H2567   1.106       .  S
C2555      H2568   1.111       .  S
C2569      C2570   1.401       .  A
C2569      C2574   1.406       .  A
C2569      H2579   1.084       .  S
C2570      C2571   1.411       .  A
C2570      C2575   1.485       .  S
C2571      C2572   1.405       .  A
C2571      C2576   1.506       .  S
C2572      C2573   1.406       .  A
C2572      H2577   1.084       .  S
C2573      C2574   1.419       .  A
C2574      C2578   1.508   1_545  S
C2575      C2580   1.412       .  A
C2575      C2584   1.400       .  A
C2576      H2592   1.110       .  S
C2576      H2593   1.110       .  S
C2576      H2594   1.111       .  S
C2578      H2589   1.109       .  S
C2578      H2590   1.111   1_565  S
C2578      H2591   1.111       .  S
C2580      C2581   1.407       .  A
C2580      C2585   1.506       .  S
C2581      C2582   1.405       .  A
C2581      H2586   1.084       .  S
C2582      C2583   1.418       .  A
C2583      C2584   1.405       .  A
C2583      C2587   1.507       .  S
C2584      H2588   1.084       .  S
C2585      H2595   1.111       .  S
C2585      H2596   1.110       .  S
C2585      H2597   1.110       .  S
C2587      H2598   1.107       .  S
C2587      H2599   1.110       .  S
C2587      H2600   1.111       .  S
C2601      C2602   1.401       .  A
C2601      C2606   1.403       .  A
C2601      H2611   1.085       .  S
C2602      C2603   1.411       .  A
C2602      C2607   1.482       .  S
C2603      C2604   1.405       .  A
C2603      C2608   1.506       .  S
C2604      C2605   1.404       .  A
C2604      H2609   1.084       .  S
C2605      C2606   1.417       .  A
C2606      C2610   1.509   1_545  S
C2607      C2612   1.410       .  A
C2607      C2616   1.400       .  A
C2608      H2624   1.110       .  S
C2608      H2625   1.110       .  S
C2608      H2626   1.111       .  S
C2610      H2621   1.110       .  S
C2610      H2622   1.110       .  S
C2610      H2623   1.107       .  S
C2612      C2613   1.405       .  A
C2612      C2617   1.506       .  S
C2613      C2614   1.406       .  A
C2613      H2618   1.084       .  S
C2614      C2615   1.418       .  A
C2615      C2616   1.403       .  A
C2615      C2619   1.508       .  S
C2616      H2620   1.085       .  S
C2617      H2627   1.111       .  S
C2617      H2628   1.110       .  S
C2617      H2629   1.110       .  S
C2619      H2630   1.111       .  S
C2619      H2631   1.106       .  S
C2619      H2632   1.110       .  S
C2633      C2634   1.401       .  A
C2633      C2638   1.403       .  A
C2633      H2643   1.085       .  S
C2634      C2635   1.410       .  A
C2634      C2639   1.480       .  S
C2635      C2636   1.404       .  A
C2635      C2640   1.506       .  S
C2636      C2637   1.404       .  A
C2636      H2641   1.084       .  S
C2637      C2638   1.417       .  A
C2638      C2642   1.509       .  S
C2639      C2644   1.410       .  A
C2639      C2648   1.400       .  A
C2640      H2656   1.110       .  S
C2640      H2657   1.109       .  S
C2640      H2658   1.111       .  S
C2642      H2653   1.111   1_556  S
C2642      H2654   1.110       .  S
C2642      H2655   1.107   1_556  S
C2644      C2645   1.404       .  A
C2644      C2649   1.506       .  S
C2645      C2646   1.404       .  A
C2645      H2650   1.084       .  S
C2646      C2647   1.417       .  A
C2647      C2648   1.404       .  A
C2647      C2651   1.507       .  S
C2648      H2652   1.084       .  S
C2649      H2659   1.111       .  S
C2649      H2660   1.110       .  S
C2649      H2661   1.109       .  S
C2651      H2662   1.111       .  S
C2651      H2663   1.110       .  S
C2651      H2664   1.108       .  S
C2665      C2666   1.402       .  A
C2665      C2670   1.408       .  A
C2665      H2675   1.084       .  S
C2666      C2667   1.411       .  A
C2666      C2671   1.489       .  S
C2667      C2668   1.407       .  A
C2667      C2672   1.506       .  S
C2668      C2669   1.406       .  A
C2668      H2673   1.084       .  S
C2669      C2670   1.418       .  A
C2670      C2674   1.507       .  S
C2671      C2676   1.412       .  A
C2671      C2680   1.402       .  A
C2672      H2688   1.110       .  S
C2672      H2689   1.109       .  S
C2672      H2690   1.111       .  S
C2674      H2685   1.107       .  S
C2674      H2686   1.111       .  S
C2674      H2687   1.110       .  S
C2676      C2677   1.407       .  A
C2676      C2681   1.506       .  S
C2677      C2678   1.405       .  A
C2677      H2682   1.084       .  S
C2678      C2679   1.419       .  A
C2679      C2680   1.407       .  A
C2679      C2683   1.509       .  S
C2680      H2684   1.084       .  S
C2681      H2691   1.111       .  S
C2681      H2692   1.110       .  S
C2681      H2693   1.109       .  S
C2683      H2694   1.110       .  S
C2683      H2695   1.107       .  S
C2683      H2696   1.111       .  S
C2697      C2698   1.401       .  A
C2697      C2702   1.404       .  A
C2697      H2707   1.084       .  S
C2698      C2699   1.412       .  A
C2698      C2703   1.484       .  S
C2699      C2700   1.406       .  A
C2699      C2704   1.506       .  S
C2700      C2701   1.405       .  A
C2700      H2705   1.084       .  S
C2701      C2702   1.416       .  A
C2702      C2706   1.507       .  S
C2703      C2708   1.413       .  A
C2703      C2712   1.402       .  A
C2704      H2720   1.109       .  S
C2704      H2721   1.110       .  S
C2704      H2722   1.111       .  S
C2706      H2717   1.107       .  S
C2706      H2718   1.111       .  S
C2706      H2719   1.110       .  S
C2708      C2709   1.404       .  A
C2708      C2713   1.507       .  S
C2709      C2710   1.402       .  A
C2709      H2714   1.084       .  S
C2710      C2711   1.414       .  A
C2711      C2712   1.403       .  A
C2711      C2715   1.508       .  S
C2712      H2716   1.084       .  S
C2713      H2723   1.111       .  S
C2713      H2724   1.109       .  S
C2713      H2725   1.110       .  S
C2715      H2726   1.110       .  S
C2715      H2727   1.108       .  S
C2715      H2728   1.111       .  S
C2729      C2730   1.401       .  A
C2729      C2734   1.405       .  A
C2729      H2739   1.084       .  S
C2730      C2731   1.411       .  A
C2730      C2735   1.483       .  S
C2731      C2732   1.405       .  A
C2731      C2736   1.506       .  S
C2732      C2733   1.404       .  A
C2732      H2737   1.084       .  S
C2733      C2734   1.417       .  A
C2734      C2738   1.507       .  S
C2735      C2740   1.411       .  A
C2735      C2744   1.401       .  A
C2736      H2752   1.110       .  S
C2736      H2753   1.109       .  S
C2736      H2754   1.111       .  S
C2738      H2749   1.107       .  S
C2738      H2750   1.111       .  S
C2738      H2751   1.110       .  S
C2740      C2741   1.404       .  A
C2740      C2745   1.507       .  S
C2741      C2742   1.403       .  A
C2741      H2746   1.084       .  S
C2742      C2743   1.416       .  A
C2743      C2744   1.406       .  A
C2743      C2747   1.508       .  S
C2744      H2748   1.084       .  S
C2745      H2755   1.111       .  S
C2745      H2756   1.110       .  S
C2745      H2757   1.109       .  S
C2747      H2758   1.109       .  S
C2747      H2759   1.111       .  S
C2747      H2760   1.111       .  S
C2761      C2762   1.400       .  A
C2761      C2766   1.403       .  A
C2761      H2771   1.085       .  S
C2762      C2763   1.410       .  A
C2762      C2767   1.482       .  S
C2763      C2764   1.405       .  A
C2763      C2768   1.506       .  S
C2764      C2765   1.405       .  A
C2764      H2769   1.084       .  S
C2765      C2766   1.419       .  A
C2766      C2770   1.509       .  S
C2767      C2772   1.409       .  A
C2767      C2776   1.401       .  A
C2768      H2784   1.110       .  S
C2768      H2785   1.110       .  S
C2768      H2786   1.111       .  S
C2770      H2781   1.111   1_556  S
C2770      H2782   1.110       .  S
C2770      H2783   1.106   1_556  S
C2772      C2773   1.403       .  A
C2772      C2777   1.507       .  S
C2773      C2774   1.407       .  A
C2773      H2778   1.084       .  S
C2774      C2775   1.419       .  A
C2775      C2776   1.405       .  A
C2775      C2779   1.507       .  S
C2776      H2780   1.084       .  S
C2777      H2787   1.111       .  S
C2777      H2788   1.110       .  S
C2777      H2789   1.110       .  S
C2779      H2790   1.111       .  S
C2779      H2791   1.106       .  S
C2779      H2792   1.110       .  S
C2793      C2794   1.399       .  A
C2793      C2798   1.406       .  A
C2793      H2803   1.084       .  S
C2794      C2795   1.409       .  A
C2794      C2799   1.486       .  S
C2795      C2796   1.406       .  A
C2795      C2800   1.507       .  S
C2796      C2797   1.410       .  A
C2796      H2801   1.083       .  S
C2797      C2798   1.425       .  A
C2798      C2802   1.508       .  S
C2799      C2804   1.409       .  A
C2799      C2808   1.400       .  A
C2800      H2816   1.110       .  S
C2800      H2817   1.110       .  S
C2800      H2818   1.111       .  S
C2802      H2813   1.111       .  S
C2802      H2814   1.110   1_545  S
C2802      H2815   1.110       .  S
C2804      C2805   1.404       .  A
C2804      C2809   1.507       .  S
C2805      C2806   1.409       .  A
C2805      H2810   1.083       .  S
C2806      C2807   1.422       .  A
C2807      C2808   1.407       .  A
C2807      C2811   1.506       .  S
C2808      H2812   1.084       .  S
C2809      H2819   1.111       .  S
C2809      H2820   1.109       .  S
C2809      H2821   1.111       .  S
C2811      H2822   1.111       .  S
C2811      H2823   1.107       .  S
C2811      H2824   1.110       .  S
C2825      C2826   1.401       .  A
C2825      C2830   1.406       .  A
C2825      H2835   1.084       .  S
C2826      C2827   1.410       .  A
C2826      C2831   1.485       .  S
C2827      C2828   1.406       .  A
C2827      C2832   1.506       .  S
C2828      C2829   1.406       .  A
C2828      H2833   1.084       .  S
C2829      C2830   1.419       .  A
C2830      C2834   1.507       .  S
C2831      C2836   1.410       .  A
C2831      C2840   1.401       .  A
C2832      H2848   1.110       .  S
C2832      H2849   1.110       .  S
C2832      H2850   1.111       .  S
C2834      H2845   1.111       .  S
C2834      H2846   1.107       .  S
C2834      H2847   1.110       .  S
C2836      C2837   1.405       .  A
C2836      C2841   1.506       .  S
C2837      C2838   1.406       .  A
C2837      H2842   1.084       .  S
C2838      C2839   1.419       .  A
C2839      C2840   1.406       .  A
C2839      C2843   1.508       .  S
C2840      H2844   1.084       .  S
C2841      H2851   1.111       .  S
C2841      H2852   1.110       .  S
C2841      H2853   1.110       .  S
C2843      H2854   1.111       .  S
C2843      H2855   1.111   1_556  S
C2843      H2856   1.109       .  S
