geometry optimzed in LAMMPS
_audit_creation_date              2020-11-30 
_audit_creation_method            'lammps2cif' 
_symmetry_space_group_name_H-M    'P1' 
_symmetry_Int_Tables_number       1 
_symmetry_cell_setting            triclinic 
loop_ 
_symmetry_equiv_pos_as_xyz 
  x,y,z 
_cell_length_a                    34.60633345 
_cell_length_b                    26.53821592803309 
_cell_length_c                    37.88338094134493 
_cell_angle_alpha                 90.15686913181236 
_cell_angle_beta                  90.77036792070304 
_cell_angle_gamma                 93.60536545136351 
loop_ 
_atom_site_label 
_atom_site_type_symbol 
_atom_site_fract_x 
_atom_site_fract_y 
_atom_site_fract_z 
_atom_site_charge 
O1          O  0.28151173  0.55787213  0.45683632    -0.71100
O2          O  0.28275103  0.46162809  0.03045810    -0.71400
O3          O  0.28410748  0.45818019  0.45924187    -0.71200
O4          O  0.28049041  0.56140900  0.02769305    -0.71200
O5          O  0.21759173  0.55381791  0.02682169    -0.71200
O6          O  0.22124529  0.45058287  0.45717870    -0.71200
O7          O  0.21994768  0.45279748  0.02839759    -0.71100
O8          O  0.21860121  0.55140883  0.45591577    -0.71300
V9          V  0.28093572  0.50958539  0.49355243     1.35200
V10         V  0.22051211  0.50222984  0.99211086     1.35200
C11         C  0.24990217  0.57040594  0.44344770     0.78100
C12         C  0.25158462  0.44155393  0.04251631     0.78200
C13         C  0.25342417  0.43776831  0.44575836     0.78000
C14         C  0.24867477  0.57464211  0.03939765     0.78000
O15         O  0.03233501  0.94661924  0.04324047    -0.71100
O16         O  0.03531336  0.04636651  0.47237332    -0.71400
O17         O  0.03529965  0.04667021  0.04372135    -0.71200
O18         O  0.03175359  0.94542679  0.47224284    -0.71200
O19         O  0.46902050  0.94562197  0.47085702    -0.71200
O20         O  0.47244394  0.04414496  0.04356615    -0.71200
O21         O  0.47259104  0.04651045  0.47247748    -0.71100
O22         O  0.46943149  0.94320016  0.04196705    -0.71300
V23         V  0.03244097  0.99631558  0.00780608     1.35200
V24         V  0.47206644  0.99487853  0.00720845     1.35200
C25         C  0.00057131  0.92869302  0.05523993     0.78100
C26         C  0.00462124  0.06297998  0.45988007     0.78200
C27         C  0.00437236  0.06134756  0.05664125     0.78000
C28         C  0.99966625  0.92900471  0.45888708     0.78000
C29         C  0.46348779  0.25218971  0.25782067     0.30600
C30         C  0.04330188  0.26081640  0.25924046     0.30600
C31         C  0.48244121  0.30621468  0.25550347    -0.05600
C32         C  0.48336131  0.23154859  0.29128307    -0.06300
C33         C  0.48379917  0.22429345  0.22861415    -0.06200
C34         C  0.02299354  0.31120797  0.25649181    -0.05600
C35         C  0.02380895  0.23768361  0.29229707    -0.06300
C36         C  0.02383941  0.22954973  0.22901999    -0.06200
C37         C  0.03262728  0.36251593  0.25992354    -0.31600
N38         N  0.99978999  0.38819078  0.25888031     0.14900
C39         C  0.46899229  0.35397240  0.25686411    -0.31600
H40         H  0.43894477  0.36307564  0.25696504     0.16800
C41         C  0.03637208  0.21629627  0.32314755    -0.30600
N42         N  0.00522947  0.19465022  0.33997206     0.13600
C43         C  0.47321932  0.20189337  0.32006584    -0.30600
C44         C  0.03639882  0.20408328  0.20007265    -0.30900
N45         N  0.00512443  0.18217435  0.18265633     0.14100
H46         H  0.06614343  0.20281295  0.19190991     0.16800
C47         C  0.47284321  0.19409310  0.20007710    -0.30900
H48         H  0.44351240  0.18169616  0.19248552     0.16800
H49         H  0.44556111  0.18233131  0.32481195     0.16800
H50         H  0.06099722  0.38033039  0.26521765     0.16800
H51         H  0.06614157  0.21490387  0.33200807     0.16800
C52         C  0.03582560  0.73667807  0.25708943     0.30600
C53         C  0.45591746  0.73556570  0.25581816     0.30600
C54         C  0.01419065  0.68402454  0.25613770    -0.05600
C55         C  0.01684131  0.76002862  0.28958189    -0.06300
C56         C  0.01717490  0.76323560  0.22621272    -0.06200
C57         C  0.47343818  0.68260405  0.25521147    -0.05600
C58         C  0.47648478  0.75898625  0.28877473    -0.06300
C59         C  0.47718465  0.76290621  0.22557831    -0.06200
C60         C  0.46116165  0.63178190  0.25833923    -0.31600
N61         N  0.99269134  0.60355468  0.26048128     0.14900
C62         C  0.02486108  0.63541121  0.26027443    -0.31600
H63         H  0.05405876  0.62388329  0.26397131     0.16800
C64         C  0.46492821  0.77916735  0.32007336    -0.30600
N65         N  0.99678349  0.79381340  0.33977331     0.13600
C66         C  0.02845603  0.78083141  0.32181359    -0.30600
C67         C  0.46670308  0.78883037  0.19592923    -0.30900
N68         N  0.99934807  0.80495424  0.17871544     0.14100
H69         H  0.43748288  0.79609030  0.18778017     0.16800
C70         C  0.03033231  0.78890892  0.19690616    -0.30900
H71         H  0.06026134  0.79461767  0.18921998     0.16800
H72         H  0.05781116  0.78679668  0.33140678     0.16800
H73         H  0.43176555  0.61599922  0.25966681     0.16800
H74         H  0.43530683  0.78343406  0.32773827     0.16800
C75         C  0.28700718  0.76582582  0.24311728     0.30600
C76         C  0.20702249  0.76107992  0.24157186     0.30600
C77         C  0.26831372  0.81762878  0.24341891    -0.05600
C78         C  0.26707527  0.74160850  0.21028552    -0.06300
C79         C  0.26634101  0.73825848  0.27347026    -0.06200
C80         C  0.22752938  0.81475722  0.24227914    -0.05600
C81         C  0.22668287  0.73827224  0.20926143    -0.06300
C82         C  0.22629662  0.73551892  0.27274719    -0.06200
C83         C  0.21614225  0.86293733  0.23673120    -0.31600
N84         N  0.24798597  0.89548292  0.23572358     0.14900
C85         C  0.27988286  0.86818973  0.23899824    -0.31600
H86         H  0.30917766  0.88429315  0.23749343     0.16800
C87         C  0.21611411  0.71754602  0.17667391    -0.30600
N88         N  0.24862664  0.70698535  0.15905454     0.13600
C89         C  0.27973090  0.72392363  0.17878398    -0.30600
C90         C  0.21413609  0.70879555  0.30214500    -0.30900
N91         N  0.24592371  0.69608638  0.32082866     0.14100
H92         H  0.18441450  0.69828071  0.30873280     0.16800
C93         C  0.27786927  0.71421686  0.30343567    -0.30900
H94         H  0.30749536  0.71024712  0.31196337     0.16800
H95         H  0.30962660  0.72334415  0.17095634     0.16800
H96         H  0.18676245  0.87348989  0.23245268     0.16800
H97         H  0.18711650  0.71032966  0.16621672     0.16800
C98         C  0.21256278  0.24307589  0.24391250     0.30600
C99         C  0.29224581  0.24459811  0.24305404     0.30600
C100        C  0.23028626  0.19077856  0.24356228    -0.05600
C101        C  0.23203021  0.26788640  0.21140128    -0.06300
C102        C  0.23425739  0.27011498  0.27473082    -0.06200
C103        C  0.27073972  0.19200272  0.24366178    -0.05600
C104        C  0.27255498  0.26996594  0.21108336    -0.06300
C105        C  0.27427864  0.27174739  0.27413543    -0.06200
C106        C  0.28132594  0.14296065  0.24041005    -0.31600
N107        N  0.24874449  0.11169279  0.23780024     0.14900
C108        C  0.21770430  0.14070310  0.23824746    -0.31600
H109        H  0.18836329  0.12624238  0.23282078     0.16800
C110        C  0.28323494  0.29950362  0.18228739    -0.30600
N111        N  0.25104387  0.31220819  0.16429740     0.13600
C112        C  0.21962926  0.29291528  0.18192372    -0.30600
C113        C  0.28749599  0.29907061  0.30340711    -0.30900
N114        N  0.25656637  0.31316769  0.32196084     0.14100
H115        H  0.31748266  0.30715912  0.31093056     0.16800
C116        C  0.22391656  0.29541682  0.30455779    -0.30900
H117        H  0.19465643  0.30128480  0.31262292     0.16800
H118        H  0.18988495  0.29886559  0.17494213     0.16800
H119        H  0.31064440  0.13105926  0.23959209     0.16800
H120        H  0.31202956  0.31337663  0.17535931     0.16800
C121        C  0.24735831  0.94993600  0.23403627    -0.04800
C122        C  0.21820747  0.97431033  0.25157740    -0.32300
C123        C  0.21802944  0.02705743  0.25250576     0.37000
C124        C  0.24730744  0.05710299  0.23549814    -0.05200
C125        C  0.27601456  0.03275606  0.21724221    -0.32200
C126        C  0.27598114  0.97982016  0.21610065     0.36900
H127        H  0.19605870  0.95233343  0.26575432     0.17300
O128        O  0.18976594  0.04870708  0.27127536    -0.59600
H129        H  0.29839301  0.05489379  0.20348039     0.17300
O130        O  0.30378320  0.95785878  0.19695975    -0.59700
H131        H  0.29139835  0.94965085  0.17371355     0.44300
H132        H  0.20125964  0.05544329  0.29507984     0.44200
C133        C  0.33105187  0.75939362  0.24521567    -0.04800
C134        C  0.35781945  0.79876377  0.25541132    -0.32300
C135        C  0.39760701  0.79137047  0.25859885     0.37000
C136        C  0.41199066  0.74284320  0.25354745    -0.05200
C137        C  0.38522643  0.70370367  0.24305615    -0.32200
C138        C  0.34550958  0.71093875  0.24012842     0.36900
H139        H  0.34836777  0.83530927  0.26215858     0.17300
O140        O  0.42228373  0.83231688  0.26687509    -0.59600
H141        H  0.39457304  0.66732988  0.23588513     0.17300
O142        O  0.32093218  0.66980955  0.23202265    -0.59700
H143        H  0.31789703  0.65057758  0.25433324     0.44300
H144        H  0.42531763  0.85178619  0.24466331     0.44200
C145        C  0.16249977  0.75628391  0.24416581    -0.04800
C146        C  0.14057845  0.71626196  0.22747754    -0.32300
C147        C  0.10014801  0.70949388  0.23106584     0.37000
C148        C  0.08041272  0.74036430  0.25443758    -0.04800
C149        C  0.10236384  0.78069918  0.27066406    -0.32200
C150        C  0.14274619  0.78701825  0.26749128     0.36900
H151        H  0.15451472  0.68844778  0.21233583     0.17300
O152        O  0.07995614  0.67499055  0.20959816    -0.59600
H153        H  0.08849166  0.80935620  0.28501553     0.17300
O154        O  0.16287539  0.82141334  0.28908066    -0.59700
H155        H  0.15158055  0.85436647  0.28492468     0.44300
H156        H  0.09171140  0.64223963  0.21334330     0.44200
C157        C  0.33660261  0.24333370  0.24569490    -0.04800
C158        C  0.36099109  0.25599945  0.21730024    -0.32300
C159        C  0.40129995  0.26167016  0.22166483     0.37000
C160        C  0.41906883  0.24982421  0.25417780    -0.05200
C161        C  0.39459526  0.23635501  0.28236154    -0.32200
C162        C  0.35443326  0.22980535  0.27777453     0.36900
H163        H  0.34964895  0.25956941  0.19105444     0.17300
O164        O  0.42312881  0.27856598  0.19360851    -0.59600
H165        H  0.40555388  0.23296770  0.30872810     0.17300
O166        O  0.33274680  0.21130106  0.30546654    -0.59700
H167        H  0.33301452  0.17404367  0.30353577     0.44300
H168        H  0.42203373  0.31581665  0.19389952     0.44200
C169        C  0.08757652  0.25801519  0.25772586    -0.04800
C170        C  0.11217137  0.29907178  0.24701140    -0.32300
C171        C  0.15210418  0.29474972  0.24312824     0.37000
C172        C  0.16860981  0.24750598  0.24717184    -0.05200
C173        C  0.14424903  0.20695052  0.25901264    -0.32200
C174        C  0.10440446  0.21115369  0.26292705     0.36900
H175        H  0.10096924  0.33458511  0.24019741     0.17300
O176        O  0.17483172  0.33751826  0.23564908    -0.59600
H177        H  0.15565943  0.17187143  0.26676282     0.17300
O178        O  0.08201817  0.16855112  0.27158911    -0.59700
H179        H  0.08039850  0.14739825  0.24994237     0.44300
H180        H  0.17760551  0.35655716  0.25818659     0.44200
C181        C  0.99333595  0.54905701  0.26027323    -0.04800
C182        C  0.02202093  0.52628915  0.24098509    -0.32300
C183        C  0.02458205  0.47385354  0.24066454     0.37000
C184        C  0.99796956  0.44249232  0.25968724    -0.05200
C185        C  0.46890972  0.46500799  0.27874713    -0.32200
C186        C  0.46644740  0.51778516  0.27916334     0.36900
H187        H  0.04243258  0.54939093  0.22560498     0.17300
O188        O  0.05197326  0.45342809  0.22009793    -0.59600
H189        H  0.44837937  0.44161909  0.29379812     0.17300
O190        O  0.43897890  0.53843058  0.29948950    -0.59700
H191        H  0.41408960  0.53117361  0.28662877     0.44300
H192        H  0.07697793  0.46090933  0.23272884     0.44200
C193        C  0.99680940  0.82491206  0.37119606    -0.04800
C194        C  0.46734771  0.85849847  0.37549957    -0.32300
C195        C  0.46745090  0.89139167  0.40433169     0.37000
C196        C  0.99790938  0.89229998  0.42939243    -0.05200
C197        C  0.02724323  0.85861358  0.42554024    -0.32200
C198        C  0.02675225  0.82477724  0.39696223     0.36900
H199        H  0.44450824  0.86051096  0.35586260     0.17300
O200        O  0.43870494  0.92453033  0.40659736    -0.59600
H201        H  0.05052058  0.85816688  0.44493388     0.17300
O202        O  0.05474058  0.79050947  0.39534797    -0.59700
H203        H  0.07926327  0.81064949  0.39068539     0.44300
H204        H  0.41662870  0.90505685  0.41757075     0.44200
C205        C  0.00053105  0.89437250  0.08561938    -0.04800
C206        C  0.03038620  0.90131669  0.11089666    -0.32300
C207        C  0.03045540  0.87215621  0.14148088     0.37000
C208        C  0.00056689  0.83452662  0.14694623    -0.05200
C209        C  0.47098012  0.82706026  0.12129477    -0.32200
C210        C  0.47059588  0.85701216  0.09096140     0.36900
H211        H  0.05313223  0.93085473  0.10759911     0.17300
O212        O  0.05828560  0.88322714  0.16694072    -0.59600
H213        H  0.44803956  0.79792512  0.12481214     0.17300
O214        O  0.44150640  0.84857208  0.06631231    -0.59700
H215        H  0.41958556  0.86715544  0.07516765     0.44300
H216        H  0.08269555  0.87174780  0.15713209     0.44200
C217        C  0.00606685  0.16427432  0.37142320    -0.04800
C218        C  0.03715347  0.13387081  0.37768212    -0.32300
C219        C  0.03753651  0.10189906  0.40691832     0.37000
C220        C  0.00620924  0.09938728  0.43043640    -0.05200
C221        C  0.47552277  0.13059820  0.42472699    -0.32200
C222        C  0.47536347  0.16310034  0.39566164     0.36900
H223        H  0.06076202  0.13366915  0.35923350     0.17300
O224        O  0.06766047  0.07112290  0.41103108    -0.59600
H225        H  0.45154877  0.12988488  0.44286797     0.17300
O226        O  0.44582218  0.19489514  0.39186151    -0.59700
H227        H  0.42247981  0.17281916  0.38570952     0.44300
H228        H  0.08823399  0.09204429  0.42365497     0.44200
C229        C  0.00544517  0.09529458  0.08765739    -0.04800
C230        C  0.03524289  0.09204710  0.11287428    -0.32300
C231        C  0.03541255  0.12014365  0.14421580     0.37000
C232        C  0.00575850  0.15301127  0.15052912    -0.05200
C233        C  0.47620588  0.15672962  0.12502132    -0.32200
C234        C  0.47563121  0.12781078  0.09401955     0.36900
H235        H  0.05775973  0.06607542  0.10894547     0.17300
O236        O  0.06313234  0.11253350  0.16953154    -0.59600
H237        H  0.45341932  0.18219177  0.12913885     0.17300
O238        O  0.44627265  0.13245633  0.06977839    -0.59700
H239        H  0.42423934  0.11058508  0.07862668     0.44300
H240        H  0.08762412  0.12818054  0.16006262     0.44200
C241        C  0.24661431  0.66560910  0.35219564    -0.04800
C242        C  0.27637781  0.63252183  0.35689375    -0.32300
C243        C  0.27810546  0.60231577  0.38684691     0.37000
C244        C  0.24964820  0.60451032  0.41288322    -0.05200
C245        C  0.21989468  0.63761071  0.40849806    -0.32200
C246        C  0.21834389  0.66833899  0.37850791     0.36900
H247        H  0.29805605  0.62917403  0.33682656     0.17300
O248        O  0.30713096  0.56959763  0.38985343    -0.59600
H249        H  0.19798015  0.63995466  0.42850057     0.17300
O250        O  0.19025790  0.70242894  0.37596558    -0.59700
H251        H  0.16576891  0.68197718  0.37110302     0.44300
H252        H  0.29685710  0.53806715  0.37801831     0.44200
C253        C  0.24987884  0.67664533  0.12752158    -0.04800
C254        C  0.22037461  0.67805327  0.10166282    -0.32300
C255        C  0.21945848  0.64537801  0.07246401     0.37000
C256        C  0.24868383  0.61131667  0.06856558    -0.05200
C257        C  0.27838933  0.61054054  0.09394120    -0.32200
C258        C  0.27896337  0.64212840  0.12337652     0.36900
H259        H  0.19775732  0.70414146  0.10429851     0.17300
O260        O  0.18985738  0.64683995  0.04813145    -0.59600
H261        H  0.30055095  0.58361956  0.09178842     0.17300
O262        O  0.30621008  0.63572470  0.14934384    -0.59700
H263        H  0.33111035  0.64943062  0.13950481     0.44300
H264        H  0.19964645  0.67071694  0.02973447     0.44200
C265        C  0.25756698  0.34205172  0.35434383    -0.04800
C266        C  0.22791616  0.33365169  0.37912277    -0.32300
C267        C  0.22661057  0.36356223  0.40953062     0.37000
C268        C  0.25551971  0.40227900  0.41589608    -0.05200
C269        C  0.28596864  0.40946780  0.39196730    -0.32200
C270        C  0.28688577  0.38038912  0.36120782     0.36900
H271        H  0.20543147  0.30397346  0.37477606     0.17300
O272        O  0.19681295  0.35484759  0.43267057    -0.59600
H273        H  0.30827061  0.43947551  0.39624431     0.17300
O274        O  0.31560402  0.39157471  0.33738442    -0.59700
H275        H  0.30445809  0.41525970  0.32041408     0.44300
H276        H  0.20665533  0.33129246  0.45046378     0.44200
C277        C  0.25211030  0.40724289  0.07319084    -0.04800
C278        C  0.22267312  0.36891329  0.07714828    -0.32300
C279        C  0.22207099  0.33713211  0.10672832     0.37000
C280        C  0.25085002  0.34408819  0.13340103    -0.05200
C281        C  0.28014204  0.38273175  0.12930482    -0.32200
C282        C  0.28120015  0.41364260  0.09946508     0.36900
H283        H  0.20032720  0.36306137  0.05697989     0.17300
O284        O  0.19441751  0.29790064  0.10839971    -0.59600
H285        H  0.30212459  0.38972740  0.14961163     0.17300
O286        O  0.30974915  0.45173074  0.09717512    -0.59700
H287        H  0.33247789  0.43551987  0.08763922     0.44300
H288        H  0.16977097  0.31374752  0.11305818     0.44200
O289        O  0.28151166  0.55787214  0.95683637    -0.71100
O290        O  0.28275105  0.46162811  0.53045804    -0.71400
O291        O  0.28410735  0.45818009  0.95924186    -0.71200
O292        O  0.28049049  0.56140902  0.52769301    -0.71200
O293        O  0.21759180  0.55381784  0.52682160    -0.71200
O294        O  0.22124518  0.45058282  0.95717883    -0.71200
O295        O  0.21994770  0.45279746  0.52839752    -0.71100
O296        O  0.21860115  0.55140882  0.95591580    -0.71300
V297        V  0.28093565  0.50958536  0.99355247     1.35200
V298        V  0.22051216  0.50222981  0.49211078     1.35200
C299        C  0.24990209  0.57040597  0.94344773     0.78100
C300        C  0.25158462  0.44155393  0.54251622     0.78200
C301        C  0.25342399  0.43776822  0.94575839     0.78000
C302        C  0.24867483  0.57464207  0.53939759     0.78000
O303        O  0.03233508  0.94661921  0.54324038    -0.71100
O304        O  0.03531335  0.04636647  0.97237339    -0.71400
O305        O  0.03529967  0.04667022  0.54372127    -0.71200
O306        O  0.03175355  0.94542678  0.97224296    -0.71200
O307        O  0.46902045  0.94562198  0.97085699    -0.71200
O308        O  0.47244401  0.04414490  0.54356616    -0.71200
O309        O  0.47259099  0.04651043  0.97247739    -0.71100
O310        O  0.46943154  0.94320013  0.54196710    -0.71300
V311        V  0.03244102  0.99631559  0.50780600     1.35200
V312        V  0.47206650  0.99487850  0.50720848     1.35200
C313        C  0.00057137  0.92869301  0.55523986     0.78100
C314        C  0.00462125  0.06297993  0.95988005     0.78200
C315        C  0.00437235  0.06134748  0.55664123     0.78000
C316        C  0.99966628  0.92900468  0.95888715     0.78000
C317        C  0.46348785  0.25218974  0.75782061     0.30600
C318        C  0.04330176  0.26081634  0.75924047     0.30600
C319        C  0.48244154  0.30621468  0.75550345    -0.05600
C320        C  0.48336139  0.23154854  0.79128305    -0.06300
C321        C  0.48379915  0.22429342  0.72861412    -0.06200
C322        C  0.02299338  0.31120786  0.75649183    -0.05600
C323        C  0.02380887  0.23768357  0.79229708    -0.06300
C324        C  0.02383914  0.22954968  0.72902006    -0.06200
C325        C  0.03262705  0.36251577  0.75992348    -0.31600
N326        N  0.99978980  0.38819067  0.75888026     0.14900
C327        C  0.46899284  0.35397238  0.75686416    -0.31600
H328        H  0.43894534  0.36307554  0.75696536     0.16800
C329        C  0.03637189  0.21629618  0.82314759    -0.30600
N330        N  0.00522931  0.19465021  0.83997208     0.13600
C331        C  0.47321936  0.20189340  0.82006584    -0.30600
C332        C  0.03639848  0.20408326  0.70007278    -0.30900
N333        N  0.00512423  0.18217425  0.68265638     0.14100
H334        H  0.06614307  0.20281317  0.69191006     0.16800
C335        C  0.47284320  0.19409299  0.70007707    -0.30900
H336        H  0.44351240  0.18169616  0.69248533     0.16800
H337        H  0.44556110  0.18233145  0.82481194     0.16800
H338        H  0.06099696  0.38033013  0.76521782     0.16800
H339        H  0.06614128  0.21490396  0.83200838     0.16800
C340        C  0.03582548  0.73667819  0.75708943     0.30600
C341        C  0.45591739  0.73556575  0.75581821     0.30600
C342        C  0.01419058  0.68402464  0.75613765    -0.05600
C343        C  0.01684133  0.76002860  0.78958194    -0.06300
C344        C  0.01717447  0.76323568  0.72621278    -0.06200
C345        C  0.47343797  0.68260400  0.75521150    -0.05600
C346        C  0.47648469  0.75898624  0.78877481    -0.06300
C347        C  0.47718459  0.76290622  0.72557830    -0.06200
C348        C  0.46116132  0.63178179  0.75833922    -0.31600
N349        N  0.99269133  0.60355468  0.76048123     0.14900
C350        C  0.02486103  0.63541132  0.76027427    -0.31600
H351        H  0.05405873  0.62388362  0.76397114     0.16800
C352        C  0.46492813  0.77916744  0.82007344    -0.30600
N353        N  0.99678375  0.79381347  0.83977339     0.13600
C354        C  0.02845625  0.78083135  0.82181361    -0.30600
C355        C  0.46670309  0.78883044  0.69592917    -0.30900
N356        N  0.99934761  0.80495440  0.67871543     0.14100
H357        H  0.43748292  0.79609043  0.68778006     0.16800
C358        C  0.03033169  0.78890896  0.69690629    -0.30900
H359        H  0.06026077  0.79461777  0.68922040     0.16800
H360        H  0.05781145  0.78679644  0.83140672     0.16800
H361        H  0.43176522  0.61599913  0.75966710     0.16800
H362        H  0.43530677  0.78343405  0.82773850     0.16800
C363        C  0.28700708  0.76582593  0.74311723     0.30600
C364        C  0.20702240  0.76107989  0.74157181     0.30600
C365        C  0.26831354  0.81762885  0.74341896    -0.05600
C366        C  0.26707518  0.74160863  0.71028542    -0.06300
C367        C  0.26634089  0.73825847  0.77347015    -0.06200
C368        C  0.22752917  0.81475729  0.74227906    -0.05600
C369        C  0.22668277  0.73827219  0.70926132    -0.06300
C370        C  0.22629651  0.73551890  0.77274718    -0.06200
C371        C  0.21614193  0.86293746  0.73673117    -0.31600
N372        N  0.24798574  0.89548293  0.73572362     0.14900
C373        C  0.27988266  0.86818977  0.73899829    -0.31600
H374        H  0.30917752  0.88429315  0.73749359     0.16800
C375        C  0.21611402  0.71754605  0.67667373    -0.30600
N376        N  0.24862665  0.70698534  0.65905448     0.13600
C377        C  0.27973087  0.72392360  0.67878397    -0.30600
C378        C  0.21413600  0.70879553  0.80214504    -0.30900
N379        N  0.24592367  0.69608639  0.82082863     0.14100
H380        H  0.18441444  0.69828082  0.80873305     0.16800
C381        C  0.27786918  0.71421691  0.80343554    -0.30900
H382        H  0.30749531  0.71024703  0.81196301     0.16800
H383        H  0.30962662  0.72334389  0.67095647     0.16800
H384        H  0.18676212  0.87349020  0.73245273     0.16800
H385        H  0.18711644  0.71032939  0.66621647     0.16800
C386        C  0.21256276  0.24307594  0.74391252     0.30600
C387        C  0.29224579  0.24459822  0.74305395     0.30600
C388        C  0.23028614  0.19077862  0.74356231    -0.05600
C389        C  0.23203010  0.26788651  0.71140125    -0.06300
C390        C  0.23425744  0.27011512  0.77473080    -0.06200
C391        C  0.27073958  0.19200282  0.74366182    -0.05600
C392        C  0.27255490  0.26996600  0.71108327    -0.06300
C393        C  0.27427873  0.27174756  0.77413542    -0.06200
C394        C  0.28132559  0.14296074  0.74041004    -0.31600
N395        N  0.24874419  0.11169279  0.73780017     0.14900
C396        C  0.21770406  0.14070314  0.73824743    -0.31600
H397        H  0.18836311  0.12624247  0.73282037     0.16800
C398        C  0.28323479  0.29950369  0.68228724    -0.30600
N399        N  0.25104366  0.31220824  0.66429731     0.13600
C400        C  0.21962903  0.29291536  0.68192364    -0.30600
C401        C  0.28749603  0.29907083  0.80340716    -0.30900
N402        N  0.25656630  0.31316767  0.82196083     0.14100
H403        H  0.31748269  0.30715982  0.81093059     0.16800
C404        C  0.22391655  0.29541681  0.80455779    -0.30900
H405        H  0.19465642  0.30128429  0.81262318     0.16800
H406        H  0.18988471  0.29886569  0.67494199     0.16800
H407        H  0.31064402  0.13105946  0.73959168     0.16800
H408        H  0.31202939  0.31337643  0.67535884     0.16800
C409        C  0.24735811  0.94993596  0.73403642    -0.04800
C410        C  0.21820728  0.97431032  0.75157763    -0.32300
C411        C  0.21802929  0.02705746  0.75250603     0.37000
C412        C  0.24730719  0.05710293  0.73549825    -0.05200
C413        C  0.27601432  0.03275593  0.71724242    -0.32200
C414        C  0.27598100  0.97982009  0.71610085     0.36900
H415        H  0.19605868  0.95233352  0.76575485     0.17300
O416        O  0.18976589  0.04870719  0.77127552    -0.59600
H417        H  0.29839294  0.05489366  0.70348088     0.17300
O418        O  0.30378327  0.95785878  0.69695997    -0.59700
H419        H  0.29139892  0.94965093  0.67371412     0.44300
H420        H  0.20126011  0.05544363  0.79508062     0.44200
C421        C  0.33105184  0.75939382  0.74521572    -0.04800
C422        C  0.35781944  0.79876393  0.75541140    -0.32300
C423        C  0.39760706  0.79137073  0.75859879     0.37000
C424        C  0.41199068  0.74284339  0.75354748    -0.05200
C425        C  0.38522644  0.70370394  0.74305620    -0.32200
C426        C  0.34550964  0.71093909  0.74012832     0.36900
H427        H  0.34836778  0.83530947  0.76215860     0.17300
O428        O  0.42228381  0.83231700  0.76687446    -0.59600
H429        H  0.39457295  0.66733002  0.73588545     0.17300
O430        O  0.32093230  0.66980969  0.73202256    -0.59700
H431        H  0.31789713  0.65057819  0.75433249     0.44300
H432        H  0.42531705  0.85178658  0.74466135     0.44200
C433        C  0.16249974  0.75628392  0.74416583    -0.04800
C434        C  0.14057843  0.71626200  0.72747749    -0.32300
C435        C  0.10014795  0.70949424  0.73106583     0.37000
C436        C  0.08041271  0.74036451  0.75443762    -0.04800
C437        C  0.10236383  0.78069947  0.77066408    -0.32200
C438        C  0.14274622  0.78701834  0.76749131     0.36900
H439        H  0.15451460  0.68844812  0.71233548     0.17300
O440        O  0.07995607  0.67499095  0.70959793    -0.59600
H441        H  0.08849165  0.80935666  0.78501540     0.17300
O442        O  0.16287553  0.82141322  0.78908085    -0.59700
H443        H  0.15158092  0.85436624  0.78492515     0.44300
H444        H  0.09171058  0.64224108  0.71334283     0.44200
C445        C  0.33660261  0.24333374  0.74569466    -0.04800
C446        C  0.36099106  0.25599938  0.71729986    -0.32300
C447        C  0.40129993  0.26167014  0.72166462     0.37000
C448        C  0.41906882  0.24982428  0.75417762    -0.05200
C449        C  0.39459527  0.23635516  0.78236137    -0.32200
C450        C  0.35443330  0.22980575  0.77777435     0.36900
H451        H  0.34964900  0.25956971  0.69105405     0.17300
O452        O  0.42312894  0.27856593  0.69360841    -0.59600
H453        H  0.40555394  0.23296809  0.80872794     0.17300
O454        O  0.33274680  0.21130207  0.80546676    -0.59700
H455        H  0.33301388  0.17404654  0.80353673     0.44300
H456        H  0.42203383  0.31581663  0.69389944     0.44200
C457        C  0.08757646  0.25801512  0.75772579    -0.04800
C458        C  0.11217135  0.29907180  0.74701139    -0.32300
C459        C  0.15210416  0.29474961  0.74312816     0.37000
C460        C  0.16860980  0.24750598  0.74717190    -0.05200
C461        C  0.14424902  0.20695049  0.75901273    -0.32200
C462        C  0.10440444  0.21115366  0.76292711     0.36900
H463        H  0.10096914  0.33458501  0.74019724     0.17300
O464        O  0.17483172  0.33751823  0.73564843    -0.59600
H465        H  0.15565947  0.17187145  0.76676295     0.17300
O466        O  0.08201814  0.16855110  0.77158926    -0.59700
H467        H  0.08039840  0.14739817  0.74994255     0.44300
H468        H  0.17760603  0.35655707  0.75818461     0.44200
C469        C  0.99333591  0.54905698  0.76027330    -0.04800
C470        C  0.02202087  0.52628901  0.74098525    -0.32300
C471        C  0.02458207  0.47385341  0.74066458     0.37000
C472        C  0.99796949  0.44249222  0.75968730    -0.05200
C473        C  0.46890966  0.46500790  0.77874706    -0.32200
C474        C  0.46644730  0.51778509  0.77916331     0.36900
H475        H  0.04243278  0.54939086  0.72560548     0.17300
O476        O  0.05197344  0.45342807  0.72009815    -0.59600
H477        H  0.44837927  0.44161907  0.79379809     0.17300
O478        O  0.43897898  0.53843062  0.79948960    -0.59700
H479        H  0.41408959  0.53117365  0.78662900     0.44300
H480        H  0.07697858  0.46090980  0.73272953     0.44200
C481        C  0.99680968  0.82491199  0.87119624    -0.04800
C482        C  0.46734786  0.85849851  0.87549961    -0.32300
C483        C  0.46745093  0.89139165  0.90433175     0.37000
C484        C  0.99790961  0.89229985  0.92939264    -0.05200
C485        C  0.02724360  0.85861350  0.92554062    -0.32200
C486        C  0.02675277  0.82477742  0.89696240     0.36900
H487        H  0.44450830  0.86051081  0.85586270     0.17300
O488        O  0.43870489  0.92453012  0.90659744    -0.59600
H489        H  0.05052086  0.85816657  0.94493448     0.17300
O490        O  0.05474093  0.79050981  0.89534788    -0.59700
H491        H  0.07926452  0.81065106  0.89068515     0.44300
H492        H  0.41662840  0.90505611  0.91757112     0.44200
C493        C  0.00053105  0.89437250  0.58561923    -0.04800
C494        C  0.03038611  0.90131659  0.61089659    -0.32300
C495        C  0.03045521  0.87215634  0.64148092     0.37000
C496        C  0.00056681  0.83452681  0.64694618    -0.05200
C497        C  0.47098037  0.82706061  0.62129473    -0.32200
C498        C  0.47059626  0.85701222  0.59096130     0.36900
H499        H  0.05313233  0.93085418  0.60759881     0.17300
O500        O  0.05828553  0.88322728  0.66694074    -0.59600
H501        H  0.44803981  0.79792557  0.62481204     0.17300
O502        O  0.44150697  0.84857121  0.56631181    -0.59700
H503        H  0.41958681  0.86715302  0.57516578     0.44300
H504        H  0.08269481  0.87174800  0.65713244     0.44200
C505        C  0.00606682  0.16427433  0.87142323    -0.04800
C506        C  0.03715352  0.13387085  0.87768208    -0.32300
C507        C  0.03753649  0.10189901  0.90691825     0.37000
C508        C  0.00620930  0.09938728  0.93043639    -0.05200
C509        C  0.47552297  0.13059821  0.92472685    -0.32200
C510        C  0.47536358  0.16310038  0.89566156     0.36900
H511        H  0.06076202  0.13366919  0.85923340     0.17300
O512        O  0.06766034  0.07112248  0.91103091    -0.59600
H513        H  0.45154919  0.12988507  0.94286796     0.17300
O514        O  0.44582226  0.19489530  0.89186163    -0.59700
H515        H  0.42248012  0.17281990  0.88570964     0.44300
H516        H  0.08823356  0.09204293  0.92365461     0.44200
C517        C  0.00544515  0.09529461  0.58765735    -0.04800
C518        C  0.03524291  0.09204715  0.61287420    -0.32300
C519        C  0.03541256  0.12014364  0.64421579     0.37000
C520        C  0.00575847  0.15301127  0.65052913    -0.05200
C521        C  0.47620588  0.15672961  0.62502142    -0.32200
C522        C  0.47563124  0.12781079  0.59401959     0.36900
H523        H  0.05775988  0.06607568  0.60894524     0.17300
O524        O  0.06313236  0.11253344  0.66953153    -0.59600
H525        H  0.45341931  0.18219172  0.62913911     0.17300
O526        O  0.44627265  0.13245632  0.56977846    -0.59700
H527        H  0.42423936  0.11058504  0.57862676     0.44300
H528        H  0.08762414  0.12818048  0.66006264     0.44200
C529        C  0.24661431  0.66560918  0.85219566    -0.04800
C530        C  0.27637783  0.63252191  0.85689372    -0.32300
C531        C  0.27810538  0.60231583  0.88684692     0.37000
C532        C  0.24964809  0.60451046  0.91288327    -0.05200
C533        C  0.21989448  0.63761074  0.90849810    -0.32200
C534        C  0.21834362  0.66833890  0.87850790     0.36900
H535        H  0.29805600  0.62917392  0.83682643     0.17300
O536        O  0.30713089  0.56959770  0.88985354    -0.59600
H537        H  0.19797963  0.63995442  0.92850042     0.17300
O538        O  0.19025752  0.70242837  0.87596535    -0.59700
H539        H  0.16576774  0.68197503  0.87110261     0.44300
H540        H  0.29685710  0.53806721  0.87801843     0.44200
C541        C  0.24987898  0.67664536  0.62752154    -0.04800
C542        C  0.22037473  0.67805321  0.60166282    -0.32300
C543        C  0.21945852  0.64537778  0.57246415     0.37000
C544        C  0.24868388  0.61131655  0.56856558    -0.05200
C545        C  0.27838940  0.61054047  0.59394117    -0.32200
C546        C  0.27896350  0.64212835  0.62337651     0.36900
H547        H  0.19775748  0.70414148  0.60429846     0.17300
O548        O  0.18985743  0.64683977  0.54813154    -0.59600
H549        H  0.30055102  0.58361950  0.59178836     0.17300
O550        O  0.30621037  0.63572500  0.64934365    -0.59700
H551        H  0.33111093  0.64943132  0.63950407     0.44300
H552        H  0.19964632  0.67071634  0.52973496     0.44200
C553        C  0.25756668  0.34205166  0.85434379    -0.04800
C554        C  0.22791582  0.33365150  0.87912276    -0.32300
C555        C  0.22661034  0.36356189  0.90953077     0.37000
C556        C  0.25551939  0.40227882  0.91589606    -0.05200
C557        C  0.28596821  0.40946755  0.89196728    -0.32200
C558        C  0.28688552  0.38038902  0.86120774     0.36900
H559        H  0.20543101  0.30397338  0.87477611     0.17300
O560        O  0.19681333  0.35484684  0.93267096    -0.59600
H561        H  0.30826994  0.43947550  0.89624425     0.17300
O562        O  0.31560365  0.39157503  0.83738434    -0.59700
H563        H  0.30445723  0.41526057  0.82041379     0.44300
H564        H  0.20665719  0.33129034  0.95046463     0.44200
C565        C  0.25211022  0.40724277  0.57319063    -0.04800
C566        C  0.22267296  0.36891316  0.57714805    -0.32300
C567        C  0.22207085  0.33713199  0.60672814     0.37000
C568        C  0.25084982  0.34408811  0.63340084    -0.05200
C569        C  0.28014187  0.38273158  0.62930453    -0.32200
C570        C  0.28119997  0.41364255  0.59946489     0.36900
H571        H  0.20032713  0.36306114  0.55697958     0.17300
O572        O  0.19441740  0.29790054  0.60839966    -0.59600
H573        H  0.30212449  0.38972716  0.64961124     0.17300
O574        O  0.30974893  0.45173095  0.59717514    -0.59700
H575        H  0.33247744  0.43552082  0.58763939     0.44300
H576        H  0.16977091  0.31374752  0.61305822     0.44200
O577        O  0.78151173  0.55787216  0.45683632    -0.71100
O578        O  0.78275099  0.46162806  0.03045812    -0.71400
O579        O  0.78410737  0.45818012  0.45924183    -0.71200
O580        O  0.78049043  0.56140898  0.02769304    -0.71200
O581        O  0.71759173  0.55381792  0.02682167    -0.71200
O582        O  0.72124519  0.45058287  0.45717871    -0.71200
O583        O  0.71994764  0.45279747  0.02839757    -0.71100
O584        O  0.71860122  0.55140884  0.45591579    -0.71300
V585        V  0.78093568  0.50958538  0.49355242     1.35200
V586        V  0.72051215  0.50222985  0.99211083     1.35200
C587        C  0.74990213  0.57040601  0.44344774     0.78100
C588        C  0.75158458  0.44155394  0.04251634     0.78200
C589        C  0.75342403  0.43776822  0.44575835     0.78000
C590        C  0.74867480  0.57464208  0.03939764     0.78000
O591        O  0.53233505  0.94661926  0.04324047    -0.71100
O592        O  0.53531340  0.04636651  0.47237332    -0.71400
O593        O  0.53529973  0.04667021  0.04372134    -0.71200
O594        O  0.53175360  0.94542681  0.47224288    -0.71200
O595        O  0.96902048  0.94562199  0.47085703    -0.71200
O596        O  0.97244386  0.04414497  0.04356616    -0.71200
O597        O  0.97259101  0.04651046  0.47247746    -0.71100
O598        O  0.96943147  0.94320013  0.04196707    -0.71300
V599        V  0.53244099  0.99631558  0.00780608     1.35200
V600        V  0.97206643  0.99487852  0.00720845     1.35200
C601        C  0.50057132  0.92869305  0.05523990     0.78100
C602        C  0.50462125  0.06297998  0.45988009     0.78200
C603        C  0.50437241  0.06134759  0.05664123     0.78000
C604        C  0.49966631  0.92900469  0.45888712     0.78000
C605        C  0.96348795  0.25218973  0.25782064     0.30600
C606        C  0.54330169  0.26081644  0.25924044     0.30600
C607        C  0.98244157  0.30621467  0.25550345    -0.05600
C608        C  0.98336139  0.23154861  0.29128304    -0.06300
C609        C  0.98379941  0.22429345  0.22861413    -0.06200
C610        C  0.52299317  0.31120795  0.25649176    -0.05600
C611        C  0.52380887  0.23768365  0.29229707    -0.06300
C612        C  0.52383912  0.22954974  0.22902004    -0.06200
C613        C  0.53262676  0.36251584  0.25992342    -0.31600
N614        N  0.49978951  0.38819076  0.25888022     0.14900
C615        C  0.96899285  0.35397238  0.25686411    -0.31600
H616        H  0.93894536  0.36307558  0.25696501     0.16800
C617        C  0.53637205  0.21629628  0.32314752    -0.30600
N618        N  0.50522945  0.19465020  0.33997208     0.13600
C619        C  0.97321936  0.20189342  0.32006581    -0.30600
C620        C  0.53639840  0.20408325  0.20007274    -0.30900
N621        N  0.50512412  0.18217429  0.18265635     0.14100
H622        H  0.56614297  0.20281300  0.19191002     0.16800
C623        C  0.97284349  0.19409313  0.20007709    -0.30900
H624        H  0.94351265  0.18169618  0.19248554     0.16800
H625        H  0.94556115  0.18233135  0.32481188     0.16800
H626        H  0.56099670  0.38033024  0.26521751     0.16800
H627        H  0.56614157  0.21490398  0.33200799     0.16800
C628        C  0.53582563  0.73667808  0.25708946     0.30600
C629        C  0.95591744  0.73556577  0.25581811     0.30600
C630        C  0.51419083  0.68402448  0.25613776    -0.05600
C631        C  0.51684146  0.76002862  0.28958196    -0.06300
C632        C  0.51717474  0.76323556  0.22621277    -0.06200
C633        C  0.97343803  0.68260409  0.25521144    -0.05600
C634        C  0.97648465  0.75898625  0.28877467    -0.06300
C635        C  0.97718479  0.76290625  0.22557827    -0.06200
C636        C  0.96116142  0.63178188  0.25833922    -0.31600
N637        N  0.49269159  0.60355471  0.26048132     0.14900
C638        C  0.52486142  0.63541114  0.26027451    -0.31600
H639        H  0.55405912  0.62388312  0.26397134     0.16800
C640        C  0.96492800  0.77916731  0.32007330    -0.30600
N641        N  0.49678375  0.79381348  0.33977335     0.13600
C642        C  0.52845633  0.78083144  0.32181366    -0.30600
C643        C  0.96670330  0.78883038  0.19592923    -0.30900
N644        N  0.49934783  0.80495429  0.17871545     0.14100
H645        H  0.93748309  0.79609030  0.18778019     0.16800
C646        C  0.53033197  0.78890892  0.19690623    -0.30900
H647        H  0.56026096  0.79461770  0.18922006     0.16800
H648        H  0.55781151  0.78679664  0.33140684     0.16800
H649        H  0.93176537  0.61599913  0.25966682     0.16800
H650        H  0.93530662  0.78343403  0.32773820     0.16800
C651        C  0.78700710  0.76582591  0.24311730     0.30600
C652        C  0.70702244  0.76107997  0.24157191     0.30600
C653        C  0.76831355  0.81762886  0.24341890    -0.05600
C654        C  0.76707518  0.74160854  0.21028562    -0.06300
C655        C  0.76634102  0.73825853  0.27347028    -0.06200
C656        C  0.72752918  0.81475732  0.24227911    -0.05600
C657        C  0.72668285  0.73827227  0.20926153    -0.06300
C658        C  0.72629664  0.73551896  0.27274723    -0.06200
C659        C  0.71614193  0.86293745  0.23673110    -0.31600
N660        N  0.74798576  0.89548294  0.23572352     0.14900
C661        C  0.77988265  0.86818975  0.23899822    -0.31600
H662        H  0.80917749  0.88429312  0.23749343     0.16800
C663        C  0.71611417  0.71754602  0.17667402    -0.30600
N664        N  0.74862664  0.70698528  0.15905458     0.13600
C665        C  0.77973073  0.72392362  0.17878410    -0.30600
C666        C  0.71413612  0.70879555  0.30214500    -0.30900
N667        N  0.74592372  0.69608639  0.32082869     0.14100
H668        H  0.68441453  0.69828071  0.30873278     0.16800
C669        C  0.77786931  0.71421686  0.30343567    -0.30900
H670        H  0.80749540  0.71024714  0.31196335     0.16800
H671        H  0.80962638  0.72334426  0.17095645     0.16800
H672        H  0.68676210  0.87349009  0.23245263     0.16800
H673        H  0.68711662  0.71032964  0.16621688     0.16800
C674        C  0.71256269  0.24307593  0.24391252     0.30600
C675        C  0.79224573  0.24459813  0.24305401     0.30600
C676        C  0.73028613  0.19077862  0.24356229    -0.05600
C677        C  0.73202989  0.26788640  0.21140126    -0.06300
C678        C  0.73425738  0.27011500  0.27473081    -0.06200
C679        C  0.77073957  0.19200282  0.24366181    -0.05600
C680        C  0.77255467  0.26996586  0.21108336    -0.06300
C681        C  0.77427865  0.27174741  0.27413541    -0.06200
C682        C  0.78132564  0.14296079  0.24041006    -0.31600
N683        N  0.74874428  0.11169284  0.23780023     0.14900
C684        C  0.71770412  0.14070317  0.23824748    -0.31600
H685        H  0.68836314  0.12624244  0.23282084     0.16800
C686        C  0.78323446  0.29950342  0.18228740    -0.30600
N687        N  0.75104347  0.31220818  0.16429744     0.13600
C688        C  0.71962877  0.29291533  0.18192369    -0.30600
C689        C  0.78749600  0.29907058  0.30340711    -0.30900
N690        N  0.75656633  0.31316759  0.32196082     0.14100
H691        H  0.81748267  0.30715912  0.31093057     0.16800
C692        C  0.72391656  0.29541678  0.30455776    -0.30900
H693        H  0.69465643  0.30128480  0.31262288     0.16800
H694        H  0.68988444  0.29886571  0.17494207     0.16800
H695        H  0.81064407  0.13105947  0.23959212     0.16800
H696        H  0.81202907  0.31337631  0.17535936     0.16800
C697        C  0.74735828  0.94993600  0.23403629    -0.04800
C698        C  0.71820749  0.97431039  0.25157744    -0.32300
C699        C  0.71802945  0.02705742  0.25250578     0.37000
C700        C  0.74730737  0.05710302  0.23549819    -0.05200
C701        C  0.77601456  0.03275606  0.21724229    -0.32200
C702        C  0.77598118  0.97982017  0.21610073     0.36900
H703        H  0.69605864  0.95233354  0.26575430     0.17300
O704        O  0.68976560  0.04870709  0.27127504    -0.59600
H705        H  0.79839301  0.05489381  0.20348051     0.17300
O706        O  0.80378351  0.95785878  0.19695998    -0.59700
H707        H  0.79139932  0.94965077  0.17371413     0.44300
H708        H  0.70125858  0.05544350  0.29507922     0.44200
C709        C  0.83105182  0.75939372  0.24521566    -0.04800
C710        C  0.85781936  0.79876393  0.25541135    -0.32300
C711        C  0.89760697  0.79137064  0.25859882     0.37000
C712        C  0.91199065  0.74284334  0.25354742    -0.05200
C713        C  0.88522646  0.70370377  0.24305618    -0.32200
C714        C  0.84550958  0.71093881  0.24012842     0.36900
H715        H  0.84836760  0.83530938  0.26215868     0.17300
O716        O  0.92228371  0.83231699  0.26687509    -0.59600
H717        H  0.89457316  0.66733000  0.23588520     0.17300
O718        O  0.82093217  0.66980959  0.23202264    -0.59700
H719        H  0.81789700  0.65057754  0.25433321     0.44300
H720        H  0.92531758  0.85178645  0.24466324     0.44200
C721        C  0.66249974  0.75628396  0.24416588    -0.04800
C722        C  0.64057834  0.71626213  0.22747758    -0.32300
C723        C  0.60014794  0.70949396  0.23106588     0.37000
C724        C  0.58041269  0.74036442  0.25443758    -0.04800
C725        C  0.60236386  0.78069929  0.27066405    -0.32200
C726        C  0.64274619  0.78701828  0.26749132     0.36900
H727        H  0.65451454  0.68844811  0.21233572     0.17300
O728        O  0.57995612  0.67499058  0.20959818    -0.59600
H729        H  0.58849176  0.80935650  0.28501540     0.17300
O730        O  0.66287540  0.82141335  0.28908069    -0.59700
H731        H  0.65158048  0.85436643  0.28492479     0.44300
H732        H  0.59171140  0.64223965  0.21334334     0.44200
C733        C  0.83660263  0.24333367  0.24569487    -0.04800
C734        C  0.86099114  0.25599952  0.21730023    -0.32300
C735        C  0.90130002  0.26167020  0.22166483     0.37000
C736        C  0.91906892  0.24982425  0.25417779    -0.05200
C737        C  0.89459531  0.23635503  0.28236154    -0.32200
C738        C  0.85443330  0.22980533  0.27777451     0.36900
H739        H  0.84964898  0.25956977  0.19105446     0.17300
O740        O  0.92312892  0.27856586  0.19360845    -0.59600
H741        H  0.90555390  0.23296774  0.30872812     0.17300
O742        O  0.83274685  0.21130106  0.30546652    -0.59700
H743        H  0.83301459  0.17404367  0.30353578     0.44300
H744        H  0.92203387  0.31581633  0.19389924     0.44200
C745        C  0.58757641  0.25801530  0.25772583    -0.04800
C746        C  0.61217129  0.29907191  0.24701144    -0.32300
C747        C  0.65210416  0.29474985  0.24312830     0.37000
C748        C  0.66860977  0.24750610  0.24717187    -0.05200
C749        C  0.64424897  0.20695066  0.25901256    -0.32200
C750        C  0.60440442  0.21115385  0.26292703     0.36900
H751        H  0.60096912  0.33458526  0.24019758     0.17300
O752        O  0.67483174  0.33751832  0.23564908    -0.59600
H753        H  0.65565931  0.17187148  0.26676256     0.17300
O754        O  0.58201817  0.16855124  0.27158903    -0.59700
H755        H  0.58039846  0.14739852  0.24994223     0.44300
H756        H  0.67760554  0.35655739  0.25818660     0.44200
C757        C  0.49333608  0.54905707  0.26027318    -0.04800
C758        C  0.52202107  0.52628920  0.24098502    -0.32300
C759        C  0.52458205  0.47385354  0.24066453     0.37000
C760        C  0.49796941  0.44249236  0.25968723    -0.05200
C761        C  0.96890978  0.46500788  0.27874716    -0.32200
C762        C  0.96644738  0.51778507  0.27916340     0.36900
H763        H  0.54243289  0.54939095  0.22560504     0.17300
O764        O  0.55197316  0.45342796  0.22009784    -0.59600
H765        H  0.94837947  0.44161897  0.29379818     0.17300
O766        O  0.93897891  0.53843053  0.29948956    -0.59700
H767        H  0.91408963  0.53117361  0.28662880     0.44300
H768        H  0.57697789  0.46090907  0.23272863     0.44200
C769        C  0.49680955  0.82491206  0.37119614    -0.04800
C770        C  0.96734759  0.85849849  0.37549953    -0.32300
C771        C  0.96745062  0.89139164  0.40433170     0.37000
C772        C  0.49790956  0.89229991  0.42939252    -0.05200
C773        C  0.52724348  0.85861351  0.42554041    -0.32200
C774        C  0.52675241  0.82477726  0.39696233     0.36900
H775        H  0.94450810  0.86051094  0.35586260     0.17300
O776        O  0.93870462  0.92452994  0.40659758    -0.59600
H777        H  0.55052094  0.85816688  0.44493398     0.17300
O778        O  0.55474058  0.79050929  0.39534803    -0.59700
H779        H  0.57926334  0.81064906  0.39068542     0.44300
H780        H  0.91662781  0.90505514  0.41757143     0.44200
C781        C  0.50053100  0.89437257  0.08561932    -0.04800
C782        C  0.53038615  0.90131668  0.11089663    -0.32300
C783        C  0.53045518  0.87215632  0.14148093     0.37000
C784        C  0.50056686  0.83452667  0.14694618    -0.05200
C785        C  0.97098000  0.82706012  0.12129486    -0.32200
C786        C  0.97059605  0.85701193  0.09096144     0.36900
H787        H  0.55313215  0.93085467  0.10759904     0.17300
O788        O  0.55828529  0.88322757  0.16694099    -0.59600
H789        H  0.94803921  0.79792520  0.12481228     0.17300
O790        O  0.94150667  0.84857169  0.06631210    -0.59700
H791        H  0.91958647  0.86715415  0.07516671     0.44300
H792        H  0.58269434  0.87174873  0.15713326     0.44200
C793        C  0.50606681  0.16427432  0.37142327    -0.04800
C794        C  0.53715345  0.13387082  0.37768215    -0.32300
C795        C  0.53753647  0.10189909  0.40691835     0.37000
C796        C  0.50620916  0.09938732  0.43043648    -0.05200
C797        C  0.97552295  0.13059818  0.42472683    -0.32200
C798        C  0.97536354  0.16310034  0.39566153     0.36900
H799        H  0.56076202  0.13366922  0.35923353     0.17300
O800        O  0.56766049  0.07112296  0.41103110    -0.59600
H801        H  0.95154912  0.12988500  0.44286792     0.17300
O802        O  0.94582223  0.19489518  0.39186151    -0.59700
H803        H  0.92247985  0.17281936  0.38570955     0.44300
H804        H  0.58823403  0.09204444  0.42365500     0.44200
C805        C  0.50544516  0.09529469  0.08765730    -0.04800
C806        C  0.53524282  0.09204725  0.11287426    -0.32300
C807        C  0.53541227  0.12014365  0.14421584     0.37000
C808        C  0.50575835  0.15301137  0.15052905    -0.05200
C809        C  0.97620598  0.15672961  0.12502141    -0.32200
C810        C  0.97563144  0.12781092  0.09401958     0.36900
H811        H  0.55775960  0.06607552  0.10894552     0.17300
O812        O  0.56313197  0.11253309  0.16953179    -0.59600
H813        H  0.95341950  0.18219193  0.12913885     0.17300
O814        O  0.94627291  0.13245678  0.06977825    -0.59700
H815        H  0.92424023  0.11058649  0.07862584     0.44300
H816        H  0.58762292  0.12817931  0.16006377     0.44200
C817        C  0.74661423  0.66560920  0.35219574    -0.04800
C818        C  0.77637772  0.63252194  0.35689388    -0.32300
C819        C  0.77810532  0.60231588  0.38684701     0.37000
C820        C  0.74964805  0.60451048  0.41288334    -0.05200
C821        C  0.71989443  0.63761086  0.40849822    -0.32200
C822        C  0.71834358  0.66833899  0.37850797     0.36900
H823        H  0.79805601  0.62917414  0.33682671     0.17300
O824        O  0.80713109  0.56959794  0.38985364    -0.59600
H825        H  0.69797980  0.63995490  0.42850071     0.17300
O826        O  0.69025756  0.70242855  0.37596533    -0.59700
H827        H  0.66576774  0.68197526  0.37110262     0.44300
H828        H  0.79685780  0.53806771  0.37801876     0.44200
C829        C  0.74987895  0.67664519  0.12752160    -0.04800
C830        C  0.72037471  0.67805312  0.10166286    -0.32300
C831        C  0.71945857  0.64537790  0.07246406     0.37000
C832        C  0.74868396  0.61131651  0.06856561    -0.05200
C833        C  0.77838954  0.61054027  0.09394119    -0.32200
C834        C  0.77896368  0.64212829  0.12337649     0.36900
H835        H  0.69775747  0.70414144  0.10429849     0.17300
O836        O  0.68985739  0.64683985  0.04813155    -0.59600
H837        H  0.80055145  0.58361958  0.09178824     0.17300
O838        O  0.80621044  0.63572510  0.14934362    -0.59700
H839        H  0.83111159  0.64943181  0.13950368     0.44300
H840        H  0.69964635  0.67071690  0.02973456     0.44200
C841        C  0.75756681  0.34205153  0.35434379    -0.04800
C842        C  0.72791589  0.33365144  0.37912270    -0.32300
C843        C  0.72661035  0.36356203  0.40953056     0.37000
C844        C  0.75551946  0.40227880  0.41589604    -0.05200
C845        C  0.78596835  0.40946755  0.39196727    -0.32200
C846        C  0.78688560  0.38038895  0.36120780     0.36900
H847        H  0.70543103  0.30397341  0.37477591     0.17300
O848        O  0.69681277  0.35484759  0.43267053    -0.59600
H849        H  0.80827017  0.43947541  0.39624425     0.17300
O850        O  0.81560401  0.39157460  0.33738452    -0.59700
H851        H  0.80445824  0.41525965  0.32041410     0.44300
H852        H  0.70665518  0.33129250  0.45046376     0.44200
C853        C  0.75211031  0.40724296  0.07319095    -0.04800
C854        C  0.72267315  0.36891341  0.07714840    -0.32300
C855        C  0.72207101  0.33713219  0.10672839     0.37000
C856        C  0.75084996  0.34408826  0.13340113    -0.05200
C857        C  0.78014219  0.38273177  0.12930497    -0.32200
C858        C  0.78120020  0.41364264  0.09946519     0.36900
H859        H  0.70032725  0.36306154  0.05698000     0.17300
O860        O  0.69441757  0.29790057  0.10839968    -0.59600
H861        H  0.80212503  0.38972718  0.14961161     0.17300
O862        O  0.80974919  0.45173068  0.09717506    -0.59700
H863        H  0.83247786  0.43551957  0.08763915     0.44300
H864        H  0.66977095  0.31374718  0.11305816     0.44200
O865        O  0.78151175  0.55787214  0.95683639    -0.71100
O866        O  0.78275100  0.46162810  0.53045805    -0.71400
O867        O  0.78410749  0.45818008  0.95924187    -0.71200
O868        O  0.78049045  0.56140901  0.52769297    -0.71200
O869        O  0.71759175  0.55381785  0.52682162    -0.71200
O870        O  0.72124531  0.45058285  0.95717882    -0.71200
O871        O  0.71994764  0.45279744  0.52839750    -0.71100
O872        O  0.71860124  0.55140886  0.95591578    -0.71300
V873        V  0.78093570  0.50958535  0.99355249     1.35200
V874        V  0.72051213  0.50222983  0.49211078     1.35200
C875        C  0.74990221  0.57040599  0.94344772     0.78100
C876        C  0.75158457  0.44155393  0.54251624     0.78200
C877        C  0.75342411  0.43776820  0.94575841     0.78000
C878        C  0.74867482  0.57464204  0.53939759     0.78000
O879        O  0.53233511  0.94661922  0.54324036    -0.71100
O880        O  0.53531335  0.04636647  0.97237338    -0.71400
O881        O  0.53529981  0.04667019  0.54372127    -0.71200
O882        O  0.53175356  0.94542680  0.97224296    -0.71200
O883        O  0.96902046  0.94562198  0.97085698    -0.71200
O884        O  0.97244387  0.04414486  0.54356614    -0.71200
O885        O  0.97259100  0.04651045  0.97247740    -0.71100
O886        O  0.96943152  0.94320012  0.54196707    -0.71300
V887        V  0.53244106  0.99631558  0.50780600     1.35200
V888        V  0.97206647  0.99487849  0.50720846     1.35200
C889        C  0.50057142  0.92869306  0.55523987     0.78100
C890        C  0.50462124  0.06297991  0.95988004     0.78200
C891        C  0.50437248  0.06134749  0.55664123     0.78000
C892        C  0.49966630  0.92900471  0.95888714     0.78000
C893        C  0.96348779  0.25218969  0.75782057     0.30600
C894        C  0.54330175  0.26081635  0.75924049     0.30600
C895        C  0.98244141  0.30621460  0.75550342    -0.05600
C896        C  0.98336130  0.23154851  0.79128300    -0.06300
C897        C  0.98379915  0.22429339  0.72861410    -0.06200
C898        C  0.52299350  0.31120796  0.75649190    -0.05600
C899        C  0.52380898  0.23768354  0.79229715    -0.06300
C900        C  0.52383911  0.22954968  0.72902005    -0.06200
C901        C  0.53262729  0.36251593  0.75992359    -0.31600
N902        N  0.49978999  0.38819078  0.75888032     0.14900
C903        C  0.96899264  0.35397230  0.75686415    -0.31600
H904        H  0.93894515  0.36307550  0.75696536     0.16800
C905        C  0.53637215  0.21629616  0.82314768    -0.30600
N906        N  0.50522947  0.19465022  0.83997211     0.13600
C907        C  0.97321922  0.20189336  0.82006580    -0.30600
C908        C  0.53639841  0.20408324  0.70007274    -0.30900
N909        N  0.50512413  0.18217424  0.68265637     0.14100
H910        H  0.56614297  0.20281311  0.69190998     0.16800
C911        C  0.97284323  0.19409295  0.70007706    -0.30900
H912        H  0.94351244  0.18169608  0.69248528     0.16800
H913        H  0.94556099  0.18233139  0.82481194     0.16800
H914        H  0.56099721  0.38033035  0.76521800     0.16800
H915        H  0.56614158  0.21490383  0.83200848     0.16800
C916        C  0.53582554  0.73667808  0.75708948     0.30600
C917        C  0.95591731  0.73556580  0.75581821     0.30600
C918        C  0.51419063  0.68402448  0.75613770    -0.05600
C919        C  0.51684136  0.76002858  0.78958196    -0.06300
C920        C  0.51717465  0.76323560  0.72621283    -0.06200
C921        C  0.97343798  0.68260413  0.75521146    -0.05600
C922        C  0.97648465  0.75898627  0.78877479    -0.06300
C923        C  0.97718437  0.76290628  0.72557826    -0.06200
C924        C  0.96116143  0.63178192  0.75833917    -0.31600
N925        N  0.49269135  0.60355465  0.76048125     0.14900
C926        C  0.52486116  0.63541118  0.76027435    -0.31600
H927        H  0.55405890  0.62388338  0.76397121     0.16800
C928        C  0.96492812  0.77916742  0.82007344    -0.30600
N929        N  0.49678375  0.79381353  0.83977337     0.13600
C930        C  0.52845627  0.78083139  0.82181360    -0.30600
C931        C  0.96670275  0.78883050  0.69592912    -0.30900
N932        N  0.49934789  0.80495439  0.67871544     0.14100
H933        H  0.93748255  0.79609049  0.68777996     0.16800
C934        C  0.53033192  0.78890894  0.69690633    -0.30900
H935        H  0.56026098  0.79461780  0.68922045     0.16800
H936        H  0.55781148  0.78679648  0.83140669     0.16800
H937        H  0.93176540  0.61599924  0.75966701     0.16800
H938        H  0.93530674  0.78343401  0.82773847     0.16800
C939        C  0.78700702  0.76582598  0.74311723     0.30600
C940        C  0.70702240  0.76108000  0.74157182     0.30600
C941        C  0.76831353  0.81762889  0.74341897    -0.05600
C942        C  0.76707510  0.74160868  0.71028550    -0.06300
C943        C  0.76634084  0.73825854  0.77347009    -0.06200
C944        C  0.72752917  0.81475735  0.74227907    -0.05600
C945        C  0.72668274  0.73827224  0.70926140    -0.06300
C946        C  0.72629652  0.73551900  0.77274712    -0.06200
C947        C  0.71614194  0.86293749  0.73673117    -0.31600
N948        N  0.74798576  0.89548295  0.73572361     0.14900
C949        C  0.77988264  0.86818978  0.73899828    -0.31600
H950        H  0.80917746  0.88429319  0.73749350     0.16800
C951        C  0.71611407  0.71754601  0.67667384    -0.30600
N952        N  0.74862663  0.70698526  0.65905452     0.13600
C953        C  0.77973068  0.72392359  0.67878408    -0.30600
C954        C  0.71413612  0.70879564  0.80214497    -0.30900
N955        N  0.74592368  0.69608643  0.82082857     0.14100
H956        H  0.68441463  0.69828091  0.80873298     0.16800
C957        C  0.77786907  0.71421697  0.80343544    -0.30900
H958        H  0.80749515  0.71024716  0.81196294     0.16800
H959        H  0.80962635  0.72334399  0.67095657     0.16800
H960        H  0.68676213  0.87349021  0.73245270     0.16800
H961        H  0.68711652  0.71032918  0.66621671     0.16800
C962        C  0.71256276  0.24307598  0.74391258     0.30600
C963        C  0.79224580  0.24459820  0.74305393     0.30600
C964        C  0.73028610  0.19077863  0.74356234    -0.05600
C965        C  0.73202996  0.26788645  0.71140130    -0.06300
C966        C  0.73425770  0.27011513  0.77473083    -0.06200
C967        C  0.77073955  0.19200281  0.74366184    -0.05600
C968        C  0.77255472  0.26996592  0.71108330    -0.06300
C969        C  0.77427899  0.27174757  0.77413542    -0.06200
C970        C  0.78132551  0.14296072  0.74041004    -0.31600
N971        N  0.74874411  0.11169279  0.73780018     0.14900
C972        C  0.71770398  0.14070314  0.73824747    -0.31600
H973        H  0.68836302  0.12624245  0.73282047     0.16800
C974        C  0.78323444  0.29950354  0.68228728    -0.30600
N975        N  0.75104341  0.31220822  0.66429737     0.13600
C976        C  0.71962880  0.29291530  0.68192369    -0.30600
C977        C  0.78749647  0.29907084  0.80340717    -0.30900
N978        N  0.75656672  0.31316767  0.82196086     0.14100
H979        H  0.81748315  0.30715981  0.81093058     0.16800
C980        C  0.72391702  0.29541683  0.80455779    -0.30900
H981        H  0.69465693  0.30128430  0.81262317     0.16800
H982        H  0.68988448  0.29886561  0.67494205     0.16800
H983        H  0.81064394  0.13105944  0.73959165     0.16800
H984        H  0.81202897  0.31337628  0.67535888     0.16800
C985        C  0.74735819  0.94993597  0.73403633    -0.04800
C986        C  0.71820744  0.97431041  0.75157749    -0.32300
C987        C  0.71802932  0.02705753  0.75250600     0.37000
C988        C  0.74730714  0.05710294  0.73549824    -0.05200
C989        C  0.77601419  0.03275588  0.71724239    -0.32200
C990        C  0.77598099  0.97982006  0.71610078     0.36900
H991        H  0.69605915  0.95233357  0.76575497     0.17300
O992        O  0.68976621  0.04870712  0.77127579    -0.59600
H993        H  0.79839269  0.05489363  0.70348079     0.17300
O994        O  0.80378336  0.95785881  0.69696000    -0.59700
H995        H  0.79139909  0.94965087  0.67371413     0.44300
H996        H  0.70126110  0.05544337  0.79508121     0.44200
C997        C  0.83105177  0.75939386  0.74521573    -0.04800
C998        C  0.85781931  0.79876404  0.75541143    -0.32300
C999        C  0.89760698  0.79137084  0.75859875     0.37000
C1000       C  0.91199059  0.74284344  0.75354748    -0.05200
C1001       C  0.88522638  0.70370395  0.74305625    -0.32200
C1002       C  0.84550956  0.71093907  0.74012838     0.36900
H1003       H  0.84836755  0.83530951  0.76215877     0.17300
O1004       O  0.92228376  0.83231705  0.76687446    -0.59600
H1005       H  0.89457296  0.66733000  0.73588567     0.17300
O1006       O  0.82093220  0.66980970  0.73202255    -0.59700
H1007       H  0.81789704  0.65057794  0.75433253     0.44300
H1008       H  0.92531697  0.85178682  0.74466130     0.44200
C1009       C  0.66249975  0.75628407  0.74416591    -0.04800
C1010       C  0.64057839  0.71626231  0.72747762    -0.32300
C1011       C  0.60014798  0.70949425  0.73106591     0.37000
C1012       C  0.58041271  0.74036453  0.75443766    -0.04800
C1013       C  0.60236390  0.78069946  0.77066411    -0.32200
C1014       C  0.64274628  0.78701839  0.76749137     0.36900
H1015       H  0.65451461  0.68844838  0.71233572     0.17300
O1016       O  0.57995626  0.67499077  0.70959821    -0.59600
H1017       H  0.58849184  0.80935663  0.78501550     0.17300
O1018       O  0.66287560  0.82141326  0.78908088    -0.59700
H1019       H  0.65158100  0.85436627  0.78492517     0.44300
H1020       H  0.59171140  0.64224035  0.71334340     0.44200
C1021       C  0.83660260  0.24333377  0.74569458    -0.04800
C1022       C  0.86099098  0.25599944  0.71729975    -0.32300
C1023       C  0.90129987  0.26167015  0.72166453     0.37000
C1024       C  0.91906876  0.24982427  0.75417755    -0.05200
C1025       C  0.89459525  0.23635516  0.78236131    -0.32200
C1026       C  0.85443331  0.22980580  0.77777430     0.36900
H1027       H  0.84964881  0.25956990  0.69105397     0.17300
O1028       O  0.92312893  0.27856580  0.69360830    -0.59600
H1029       H  0.90555392  0.23296797  0.80872787     0.17300
O1030       O  0.83274687  0.21130195  0.80546669    -0.59700
H1031       H  0.83301396  0.17404629  0.80353646     0.44300
H1032       H  0.92203389  0.31581630  0.69389917     0.44200
C1033       C  0.58757636  0.25801523  0.75772577    -0.04800
C1034       C  0.61217116  0.29907195  0.74701131    -0.32300
C1035       C  0.65210400  0.29474971  0.74312810     0.37000
C1036       C  0.66860973  0.24750613  0.74717193    -0.05200
C1037       C  0.64424893  0.20695064  0.75901265    -0.32200
C1038       C  0.60440437  0.21115381  0.76292710     0.36900
H1039       H  0.60096885  0.33458505  0.74019700     0.17300
O1040       O  0.67483157  0.33751830  0.73564847    -0.59600
H1041       H  0.65565930  0.17187150  0.76676272     0.17300
O1042       O  0.58201811  0.16855119  0.77158918    -0.59700
H1043       H  0.58039834  0.14739836  0.74994243     0.44300
H1044       H  0.67760594  0.35655680  0.75818468     0.44200
C1045       C  0.49333598  0.54905701  0.76027322    -0.04800
C1046       C  0.52202102  0.52628913  0.74098515    -0.32300
C1047       C  0.52458215  0.47385352  0.74066457     0.37000
C1048       C  0.49796956  0.44249231  0.75968726    -0.05200
C1049       C  0.96890964  0.46500789  0.77874711    -0.32200
C1050       C  0.96644727  0.51778509  0.77916339     0.36900
H1051       H  0.54243313  0.54939093  0.72560550     0.17300
O1052       O  0.55197348  0.45342808  0.72009818    -0.59600
H1053       H  0.94837930  0.44161910  0.79379817     0.17300
O1054       O  0.93897897  0.53843065  0.79948967    -0.59700
H1055       H  0.91408960  0.53117371  0.78662905     0.44300
H1056       H  0.57697864  0.46090984  0.73272955     0.44200
C1057       C  0.49680964  0.82491208  0.87119620    -0.04800
C1058       C  0.96734788  0.85849842  0.87549966    -0.32300
C1059       C  0.96745089  0.89139159  0.90433177     0.37000
C1060       C  0.49790965  0.89229994  0.92939259    -0.05200
C1061       C  0.52724362  0.85861353  0.92554056    -0.32200
C1062       C  0.52675258  0.82477736  0.89696238     0.36900
H1063       H  0.94450842  0.86051085  0.85586265     0.17300
O1064       O  0.93870487  0.92453018  0.90659738    -0.59600
H1065       H  0.55052079  0.85816643  0.94493444     0.17300
O1066       O  0.55474064  0.79050928  0.89534805    -0.59700
H1067       H  0.57926342  0.81064896  0.89068542     0.44300
H1068       H  0.91662833  0.90505640  0.91757105     0.44200
C1069       C  0.50053117  0.89437271  0.58561928    -0.04800
C1070       C  0.53038631  0.90131684  0.61089659    -0.32300
C1071       C  0.53045536  0.87215649  0.64148091     0.37000
C1072       C  0.50056702  0.83452692  0.64694620    -0.05200
C1073       C  0.97098019  0.82706045  0.62129466    -0.32200
C1074       C  0.97059596  0.85701220  0.59096129     0.36900
H1075       H  0.55313268  0.93085422  0.60759869     0.17300
O1076       O  0.55828564  0.88322728  0.66694073    -0.59600
H1077       H  0.94803957  0.79792545  0.62481195     0.17300
O1078       O  0.94150663  0.84857165  0.56631202    -0.59700
H1079       H  0.91958587  0.86715446  0.57516684     0.44300
H1080       H  0.58269486  0.87174794  0.65713238     0.44200
C1081       C  0.50606683  0.16427434  0.87142323    -0.04800
C1082       C  0.53715347  0.13387086  0.87768210    -0.32300
C1083       C  0.53753641  0.10189903  0.90691826     0.37000
C1084       C  0.50620925  0.09938727  0.93043638    -0.05200
C1085       C  0.97552303  0.13059825  0.92472689    -0.32200
C1086       C  0.97536364  0.16310042  0.89566161     0.36900
H1087       H  0.56076199  0.13366929  0.85923347     0.17300
O1088       O  0.56766028  0.07112256  0.91103094    -0.59600
H1089       H  0.95154923  0.12988512  0.94286801     0.17300
O1090       O  0.94582232  0.19489532  0.89186166    -0.59700
H1091       H  0.92248019  0.17281990  0.88570965     0.44300
H1092       H  0.58823346  0.09204307  0.92365461     0.44200
C1093       C  0.50544523  0.09529470  0.58765730    -0.04800
C1094       C  0.53524290  0.09204725  0.61287424    -0.32300
C1095       C  0.53541230  0.12014358  0.64421586     0.37000
C1096       C  0.50575837  0.15301129  0.65052909    -0.05200
C1097       C  0.97620595  0.15672962  0.62502148    -0.32200
C1098       C  0.97563124  0.12781081  0.59401967     0.36900
H1099       H  0.55775983  0.06607575  0.60894536     0.17300
O1100       O  0.56313200  0.11253303  0.66953181    -0.59600
H1101       H  0.95341942  0.18219184  0.62913915     0.17300
O1102       O  0.94627260  0.13245632  0.56977857    -0.59700
H1103       H  0.92423935  0.11058505  0.57862692     0.44300
H1104       H  0.58762295  0.12817919  0.66006378     0.44200
C1105       C  0.74661433  0.66560921  0.85219559    -0.04800
C1106       C  0.77637787  0.63252196  0.85689368    -0.32300
C1107       C  0.77810548  0.60231585  0.88684688     0.37000
C1108       C  0.74964826  0.60451046  0.91288321    -0.05200
C1109       C  0.71989470  0.63761073  0.90849800    -0.32200
C1110       C  0.71834371  0.66833891  0.87850783     0.36900
H1111       H  0.79805596  0.62917397  0.83682636     0.17300
O1112       O  0.80713088  0.56959755  0.88985344    -0.59600
H1113       H  0.69798001  0.63995446  0.92850041     0.17300
O1114       O  0.69025757  0.70242836  0.87596538    -0.59700
H1115       H  0.66576782  0.68197502  0.87110259     0.44300
H1116       H  0.79685692  0.53806711  0.87801838     0.44200
C1117       C  0.74987908  0.67664523  0.62752157    -0.04800
C1118       C  0.72037484  0.67805307  0.60166286    -0.32300
C1119       C  0.71945861  0.64537767  0.57246421     0.37000
C1120       C  0.74868400  0.61131640  0.56856562    -0.05200
C1121       C  0.77838962  0.61054020  0.59394117    -0.32200
C1122       C  0.77896382  0.64212825  0.62337647     0.36900
H1123       H  0.69775762  0.70414143  0.60429845     0.17300
O1124       O  0.68985723  0.64683943  0.54813174    -0.59600
H1125       H  0.80055153  0.58361951  0.59178818     0.17300
O1126       O  0.80621073  0.63572541  0.64934344    -0.59700
H1127       H  0.83111217  0.64943251  0.63950294     0.44300
H1128       H  0.69964553  0.67071550  0.52973521     0.44200
C1129       C  0.75756688  0.34205164  0.85434381    -0.04800
C1130       C  0.72791588  0.33365151  0.87912274    -0.32300
C1131       C  0.72661035  0.36356190  0.90953076     0.37000
C1132       C  0.75551942  0.40227877  0.91589610    -0.05200
C1133       C  0.78596821  0.40946751  0.89196731    -0.32200
C1134       C  0.78688557  0.38038902  0.86120780     0.36900
H1135       H  0.70543105  0.30397343  0.87477605     0.17300
O1136       O  0.69681302  0.35484721  0.93267079    -0.59600
H1137       H  0.80826996  0.43947539  0.89624436     0.17300
O1138       O  0.81560396  0.39157480  0.83738449    -0.59700
H1139       H  0.80445817  0.41525973  0.82041404     0.44300
H1140       H  0.70665618  0.33129117  0.95046438     0.44200
C1141       C  0.75211021  0.40724283  0.57319073    -0.04800
C1142       C  0.72267296  0.36891324  0.57714812    -0.32300
C1143       C  0.72207082  0.33713210  0.60672821     0.37000
C1144       C  0.75084979  0.34408820  0.63340096    -0.05200
C1145       C  0.78014201  0.38273166  0.62930472    -0.32200
C1146       C  0.78120003  0.41364255  0.59946499     0.36900
H1147       H  0.70032716  0.36306123  0.55697961     0.17300
O1148       O  0.69441744  0.29790048  0.60839962    -0.59600
H1149       H  0.80212489  0.38972706  0.64961129     0.17300
O1150       O  0.80974897  0.45173088  0.59717510    -0.59700
H1151       H  0.83247746  0.43552056  0.58763934     0.44300
H1152       H  0.66977085  0.31374713  0.61305821     0.44200
loop_ 
_geom_bond_atom_site_label_1 
_geom_bond_atom_site_label_2 
_geom_bond_distance 
_geom_bond_site_symmetry_2 
_ccdc_geom_bond_type 
O1            V9   1.893       .  S
O1           C11   1.263       .  A
O2          V297   1.896   1_554  S
O2           C12   1.264       .  A
O3            V9   1.891       .  S
O3           C13   1.262       .  A
O4          V297   1.886   1_554  S
O4           C14   1.262       .  A
O5           V10   1.904   1_554  S
O5           C14   1.265       .  A
O6          V298   1.904       .  S
O6           C13   1.266       .  A
O7           V10   1.902   1_554  S
O7           C12   1.265       .  A
O8          V298   1.899       .  S
O8           C11   1.264       .  A
V9          O290   1.896       .  S
V9          O292   1.886       .  S
V9          V298   2.088       .  T
V10         O294   1.904       .  S
V10         O296   1.899       .  S
V10         V297   2.088       .  T
C11         C244   1.472       .  S
C12         C277   1.479       .  S
C13         C268   1.475       .  S
C14         C256   1.470       .  S
O15          V23   1.884       .  S
O15          C25   1.261       .  A
O16         V311   1.890   1_545  S
O16          C26   1.262       .  A
O17          V23   1.902   1_545  S
O17          C27   1.266       .  A
O18         V311   1.904       .  S
O18          C28   1.266   1_455  A
O19         V312   1.893       .  S
O19         C604   1.263       .  A
O20          V24   1.896   1_545  S
O20         C603   1.263       .  A
O21         V312   1.902   1_545  S
O21         C602   1.266       .  A
O22          V24   1.903       .  S
O22         C601   1.265       .  A
V23         O304   1.890   1_564  S
V23         O306   1.904   1_554  S
V23         V600   2.087   1_455  T
V24         O307   1.893   1_554  S
V24         O309   1.902   1_564  S
V24         V599   2.087       .  T
C25         O598   1.265   1_455  A
C25         C205   1.470       .  S
C26         O597   1.266   1_455  A
C26         C220   1.477       .  S
C27         O596   1.263   1_455  A
C27         C229   1.477       .  S
C28         O595   1.263       .  A
C28         C196   1.478       .  S
C29          C31   1.542       .  S
C29          C33   1.532       .  S
C29          C32   1.552       .  S
C29         C160   1.539       .  S
C30          C34   1.552       .  S
C30          C36   1.535       .  S
C30          C35   1.541       .  S
C30         C169   1.540       .  S
C31          C39   1.378       .  A
C31         C610   1.401       .  A
C32          C43   1.383       .  A
C32         C611   1.399       .  A
C33          C47   1.379       .  A
C33         C612   1.384       .  A
C34          C37   1.387       .  A
C34         C607   1.401   1_455  A
C35          C41   1.378       .  A
C35         C608   1.399   1_455  A
C36          C44   1.376       .  A
C36         C609   1.384   1_455  A
C37          N38   1.361   1_455  A
C37          H50   1.079       .  S
N38         C615   1.357       .  A
N38         C184   1.447       .  S
C39         N614   1.357       .  A
C39          H40   1.082       .  S
C41          N42   1.357       .  A
C41          H51   1.082       .  S
N42         C619   1.356   1_455  A
N42         C217   1.441       .  S
C43         N618   1.356       .  A
C43          H49   1.077       .  S
C44          N45   1.358       .  A
C44          H46   1.081       .  S
N45         C623   1.359   1_455  A
N45         C232   1.442       .  S
C47         N621   1.359       .  A
C47          H48   1.082       .  S
C52          C54   1.543       .  S
C52          C56   1.524       .  S
C52          C55   1.549       .  S
C52         C148   1.545       .  S
C53          C57   1.566       .  S
C53          C59   1.530       .  S
C53          C58   1.539       .  S
C53         C136   1.546       .  S
C54          C62   1.373       .  A
C54         C633   1.408   1_455  A
C55          C66   1.383       .  A
C55         C634   1.395   1_455  A
C56          C70   1.372       .  A
C56         C635   1.383   1_455  A
C57          C60   1.394       .  A
C57         C630   1.408       .  A
C58          C64   1.374       .  A
C58         C631   1.395       .  A
C59          C67   1.375       .  A
C59         C632   1.383       .  A
C60         N637   1.363       .  A
C60          H73   1.077       .  S
N61          C62   1.355   1_655  A
N61         C636   1.363       .  A
N61         C181   1.448       .  S
C62          H63   1.081       .  S
C64         N641   1.359       .  A
C64          H74   1.082       .  S
N65          C66   1.360   1_655  A
N65         C640   1.359       .  A
N65         C193   1.447       .  S
C66          H72   1.076       .  S
C67         N644   1.358       .  A
C67          H69   1.082       .  S
N68          C70   1.358   1_655  A
N68         C643   1.358       .  A
N68         C208   1.438   1_655  S
C70          H71   1.081       .  S
C75          C77   1.556       .  S
C75          C79   1.526       .  S
C75          C78   1.534       .  S
C75         C133   1.545       .  S
C76          C80   1.551       .  S
C76          C82   1.530       .  S
C76          C81   1.548       .  S
C76         C145   1.542       .  S
C77          C85   1.387       .  A
C77          C80   1.409       .  A
C78          C89   1.369       .  A
C78          C81   1.395       .  A
C79          C93   1.371       .  A
C79          C82   1.383       .  A
C80          C83   1.377       .  A
C81          C87   1.385       .  A
C82          C90   1.378       .  A
C83          N84   1.358       .  A
C83          H96   1.082       .  S
N84          C85   1.362       .  A
N84         C121   1.448       .  S
C85          H86   1.077       .  S
C87          N88   1.360       .  A
C87          H97   1.080       .  S
N88          C89   1.355       .  A
N88         C253   1.441       .  S
C89          H95   1.081       .  S
C90          N91   1.361       .  A
C90          H92   1.081       .  S
N91          C93   1.357       .  A
N91         C241   1.440       .  S
C93          H94   1.082       .  S
C98         C100   1.552       .  S
C98         C102   1.532       .  S
C98         C101   1.541       .  S
C98         C172   1.540       .  S
C99         C103   1.540       .  S
C99         C105   1.537       .  S
C99         C104   1.557       .  S
C99         C157   1.539       .  S
C100        C108   1.385       .  A
C100        C103   1.398       .  A
C101        C112   1.378       .  A
C101        C104   1.400       .  A
C102        C116   1.376       .  A
C102        C105   1.383       .  A
C103        C106   1.380       .  A
C104        C110   1.386       .  A
C105        C113   1.380       .  A
C106        N107   1.360       .  A
C106        H119   1.082       .  S
N107        C108   1.361       .  A
N107        C124   1.449       .  S
C108        H109   1.080       .  S
C110        N111   1.359       .  A
C110        H120   1.076       .  S
N111        C112   1.357       .  A
N111        C280   1.446       .  S
C112        H118   1.081       .  S
C113        N114   1.360       .  A
C113        H115   1.081       .  S
N114        C116   1.358       .  A
N114        C265   1.444       .  S
C116        H117   1.082       .  S
C121        C122   1.405       .  A
C121        C126   1.412       .  A
C122        C123   1.401   1_565  A
C122        H127   1.083       .  S
C123        C124   1.413       .  A
C123        O128   1.371       .  S
C124        C125   1.407       .  A
C125        C126   1.405   1_545  A
C125        H129   1.083       .  S
C126        O130   1.370       .  S
O128        H132   0.992       .  S
O130        H131   0.992       .  S
C133        C134   1.402       .  A
C133        C138   1.422       .  A
C134        C135   1.407       .  A
C134        H139   1.074       .  S
C135        C136   1.423       .  A
C135        O140   1.372       .  S
C136        C137   1.401       .  A
C137        C138   1.403       .  A
C137        H141   1.073       .  S
C138        O142   1.372       .  S
O140        H144   0.992       .  S
O142        H143   0.992       .  S
C145        C146   1.409       .  A
C145        C150   1.413       .  A
C146        C147   1.408       .  A
C146        H151   1.075       .  S
C147        C148   1.416       .  A
C147        O152   1.374       .  S
C148        C149   1.408       .  A
C149        C150   1.404       .  A
C149        H153   1.075       .  S
C150        O154   1.374       .  S
O152        H156   0.992       .  S
O154        H155   0.992       .  S
C157        C158   1.405       .  A
C157        C162   1.413       .  A
C158        C159   1.401       .  A
C158        H163   1.071       .  S
C159        C160   1.414       .  A
C159        O164   1.372       .  S
C160        C161   1.405       .  A
C161        C162   1.398       .  A
C161        H165   1.070       .  S
C162        O166   1.372       .  S
O164        H168   0.992       .  S
O166        H167   0.992       .  S
C169        C170   1.404       .  A
C169        C174   1.419       .  A
C170        C171   1.404       .  A
C170        H175   1.072       .  S
C171        C172   1.418       .  A
C171        O176   1.372       .  S
C172        C173   1.403       .  A
C173        C174   1.400       .  A
C173        H177   1.074       .  S
C174        O178   1.373       .  S
O176        H180   0.991       .  S
O178        H179   0.991       .  S
C181        C182   1.406   1_655  A
C181        C762   1.411       .  A
C182        C183   1.400       .  A
C182        H187   1.083       .  S
C183        C184   1.409   1_455  A
C183        O188   1.372       .  S
C184        C761   1.408       .  A
C185        C186   1.409       .  A
C185        C760   1.408       .  A
C185        H189   1.083       .  S
C186        C757   1.411       .  A
C186        O190   1.371       .  S
O188        H192   0.992       .  S
O190        H191   0.992       .  S
C193        C198   1.414   1_655  A
C193        C770   1.407       .  A
C194        C195   1.396       .  A
C194        C769   1.407       .  A
C194        H199   1.082       .  S
C195        C772   1.408       .  A
C195        O200   1.372       .  S
C196        C197   1.403   1_655  A
C196        C771   1.408       .  A
C197        C198   1.404       .  A
C197        H201   1.084       .  S
C198        O202   1.371       .  S
O200        H204   0.992       .  S
O202        H203   0.992       .  S
C205        C206   1.402       .  A
C205        C786   1.405   1_455  A
C206        C207   1.395       .  A
C206        H211   1.084       .  S
C207        C208   1.410       .  A
C207        O212   1.372       .  S
C208        C785   1.407   1_455  A
C209        C210   1.399       .  A
C209        C784   1.407       .  A
C209        H213   1.083       .  S
C210        C781   1.405       .  A
C210        O214   1.371       .  S
O212        H216   0.992       .  S
O214        H215   0.992       .  S
C217        C218   1.403       .  A
C217        C798   1.413   1_455  A
C218        C219   1.397       .  A
C218        H223   1.083       .  S
C219        C220   1.411       .  A
C219        O224   1.372       .  S
C220        C797   1.402   1_455  A
C221        C222   1.401       .  A
C221        C796   1.402       .  A
C221        H225   1.084       .  S
C222        C793   1.413       .  A
C222        O226   1.372       .  S
O224        H228   0.992       .  S
O226        H227   0.992       .  S
C229        C230   1.403       .  A
C229        C810   1.409   1_455  A
C230        C231   1.400       .  A
C230        H235   1.084       .  S
C231        C232   1.410       .  A
C231        O236   1.372       .  S
C232        C809   1.406   1_455  A
C233        C234   1.400       .  A
C233        C808   1.406       .  A
C233        H237   1.083       .  S
C234        C805   1.409       .  A
C234        O238   1.372       .  S
O236        H240   0.992       .  S
O238        H239   0.991       .  S
C241        C242   1.405       .  A
C241        C246   1.411       .  A
C242        C243   1.394       .  A
C242        H247   1.083       .  S
C243        C244   1.407       .  A
C243        O248   1.372       .  S
C244        C245   1.403       .  A
C245        C246   1.403       .  A
C245        H249   1.084       .  S
C246        O250   1.371       .  S
O248        H252   0.992       .  S
O250        H251   0.992       .  S
C253        C254   1.408       .  A
C253        C258   1.413       .  A
C254        C255   1.402       .  A
C254        H259   1.082       .  S
C255        C256   1.407       .  A
C255        O260   1.371       .  S
C256        C257   1.399       .  A
C257        C258   1.392       .  A
C257        H261   1.084       .  S
C258        O262   1.372       .  S
O260        H264   0.992       .  S
O262        H263   0.992       .  S
C265        C266   1.408       .  A
C265        C270   1.412       .  A
C266        C267   1.400       .  A
C266        H271   1.082       .  S
C267        C268   1.406       .  A
C267        O272   1.371       .  S
C268        C269   1.404       .  A
C269        C270   1.398       .  A
C269        H273   1.084       .  S
C270        O274   1.371       .  S
O272        H276   0.992       .  S
O274        H275   0.992       .  S
C277        C278   1.403       .  A
C277        C282   1.408       .  A
C278        C279   1.404       .  A
C278        H283   1.084       .  S
C279        C280   1.413       .  A
C279        O284   1.371       .  S
C280        C281   1.406       .  A
C281        C282   1.398       .  A
C281        H285   1.082       .  S
C282        O286   1.372       .  S
O284        H288   0.992       .  S
O286        H287   0.992       .  S
O289        V297   1.893       .  S
O289        C299   1.263       .  A
O290        C300   1.264       .  A
O291        V297   1.891       .  S
O291        C301   1.262       .  A
O292        C302   1.262       .  A
O293        V298   1.904       .  S
O293        C302   1.265       .  A
O294        C301   1.266       .  A
O295        V298   1.902       .  S
O295        C300   1.265       .  A
O296        C299   1.264       .  A
C299        C532   1.472       .  S
C300        C565   1.479       .  S
C301        C556   1.475       .  S
C302        C544   1.470       .  S
O303        V311   1.884       .  S
O303        C313   1.261       .  A
O304        C314   1.262       .  A
O305        V311   1.902   1_545  S
O305        C315   1.266       .  A
O306        C316   1.266   1_455  A
O307        C892   1.263       .  A
O308        V312   1.896   1_545  S
O308        C891   1.263       .  A
O309        C890   1.266       .  A
O310        V312   1.903       .  S
O310        C889   1.265       .  A
V311        V888   2.087   1_455  T
V312        V887   2.087       .  T
C313        O886   1.265   1_455  A
C313        C493   1.470       .  S
C314        O885   1.266   1_455  A
C314        C508   1.477       .  S
C315        O884   1.263   1_455  A
C315        C517   1.477       .  S
C316        O883   1.263       .  A
C316        C484   1.478       .  S
C317        C319   1.542       .  S
C317        C321   1.532       .  S
C317        C320   1.552       .  S
C317        C448   1.539       .  S
C318        C322   1.552       .  S
C318        C324   1.535       .  S
C318        C323   1.541       .  S
C318        C457   1.540       .  S
C319        C327   1.378       .  A
C319        C898   1.401       .  A
C320        C331   1.383       .  A
C320        C899   1.399       .  A
C321        C335   1.379       .  A
C321        C900   1.384       .  A
C322        C895   1.401   1_455  A
C322        C325   1.387       .  A
C323        C896   1.399   1_455  A
C323        C329   1.378       .  A
C324        C897   1.384   1_455  A
C324        C332   1.376       .  A
C325        N326   1.361   1_455  A
C325        H338   1.079       .  S
N326        C903   1.357       .  A
N326        C472   1.447       .  S
C327        N902   1.357       .  A
C327        H328   1.082       .  S
C329        N330   1.357       .  A
C329        H339   1.082       .  S
N330        C907   1.356   1_455  A
N330        C505   1.441       .  S
C331        N906   1.356       .  A
C331        H337   1.077       .  S
C332        N333   1.358       .  A
C332        H334   1.081       .  S
N333        C911   1.359   1_455  A
N333        C520   1.442       .  S
C335        N909   1.359       .  A
C335        H336   1.082       .  S
C340        C342   1.543       .  S
C340        C344   1.524       .  S
C340        C343   1.549       .  S
C340        C436   1.545       .  S
C341        C345   1.566       .  S
C341        C347   1.530       .  S
C341        C346   1.539       .  S
C341        C424   1.546       .  S
C342        C350   1.373       .  A
C342        C921   1.408   1_455  A
C343        C354   1.383       .  A
C343        C922   1.395   1_455  A
C344        C358   1.372       .  A
C344        C923   1.383   1_455  A
C345        C918   1.408       .  A
C345        C348   1.394       .  A
C346        C919   1.395       .  A
C346        C352   1.374       .  A
C347        C920   1.383       .  A
C347        C355   1.375       .  A
C348        N925   1.363       .  A
C348        H361   1.077       .  S
N349        C924   1.363       .  A
N349        C350   1.355   1_655  A
N349        C469   1.448       .  S
C350        H351   1.081       .  S
C352        N929   1.359       .  A
C352        H362   1.082       .  S
N353        C928   1.359       .  A
N353        C354   1.360   1_655  A
N353        C481   1.447       .  S
C354        H360   1.076       .  S
C355        N932   1.358       .  A
C355        H357   1.082       .  S
N356        C931   1.358       .  A
N356        C358   1.358   1_655  A
N356        C496   1.438   1_655  S
C358        H359   1.081       .  S
C363        C365   1.556       .  S
C363        C367   1.526       .  S
C363        C366   1.534       .  S
C363        C421   1.545       .  S
C364        C368   1.551       .  S
C364        C370   1.530       .  S
C364        C369   1.548       .  S
C364        C433   1.542       .  S
C365        C373   1.387       .  A
C365        C368   1.409       .  A
C366        C377   1.369       .  A
C366        C369   1.395       .  A
C367        C381   1.371       .  A
C367        C370   1.383       .  A
C368        C371   1.377       .  A
C369        C375   1.385       .  A
C370        C378   1.378       .  A
C371        N372   1.358       .  A
C371        H384   1.082       .  S
N372        C373   1.362       .  A
N372        C409   1.448       .  S
C373        H374   1.077       .  S
C375        N376   1.360       .  A
C375        H385   1.080       .  S
N376        C377   1.355       .  A
N376        C541   1.441       .  S
C377        H383   1.081       .  S
C378        N379   1.361       .  A
C378        H380   1.081       .  S
N379        C381   1.357       .  A
N379        C529   1.440       .  S
C381        H382   1.082       .  S
C386        C388   1.552       .  S
C386        C390   1.532       .  S
C386        C389   1.541       .  S
C386        C460   1.540       .  S
C387        C391   1.540       .  S
C387        C393   1.537       .  S
C387        C392   1.557       .  S
C387        C445   1.539       .  S
C388        C396   1.385       .  A
C388        C391   1.398       .  A
C389        C400   1.378       .  A
C389        C392   1.400       .  A
C390        C404   1.376       .  A
C390        C393   1.383       .  A
C391        C394   1.380       .  A
C392        C398   1.386       .  A
C393        C401   1.380       .  A
C394        N395   1.360       .  A
C394        H407   1.082       .  S
N395        C396   1.361       .  A
N395        C412   1.449       .  S
C396        H397   1.080       .  S
C398        N399   1.359       .  A
C398        H408   1.076       .  S
N399        C400   1.357       .  A
N399        C568   1.446       .  S
C400        H406   1.081       .  S
C401        N402   1.360       .  A
C401        H403   1.081       .  S
N402        C404   1.358       .  A
N402        C553   1.444       .  S
C404        H405   1.082       .  S
C409        C410   1.406       .  A
C409        C414   1.412       .  A
C410        C411   1.401   1_565  A
C410        H415   1.083       .  S
C411        C412   1.413       .  A
C411        O416   1.371       .  S
C412        C413   1.407       .  A
C413        C414   1.405   1_545  A
C413        H417   1.083       .  S
C414        O418   1.370       .  S
O416        H420   0.992       .  S
O418        H419   0.992       .  S
C421        C422   1.402       .  A
C421        C426   1.422       .  A
C422        C423   1.407       .  A
C422        H427   1.074       .  S
C423        C424   1.423       .  A
C423        O428   1.372       .  S
C424        C425   1.401       .  A
C425        C426   1.403       .  A
C425        H429   1.073       .  S
C426        O430   1.372       .  S
O428        H432   0.992       .  S
O430        H431   0.992       .  S
C433        C434   1.409       .  A
C433        C438   1.413       .  A
C434        C435   1.408       .  A
C434        H439   1.075       .  S
C435        C436   1.416       .  A
C435        O440   1.374       .  S
C436        C437   1.408       .  A
C437        C438   1.404       .  A
C437        H441   1.075       .  S
C438        O442   1.374       .  S
O440        H444   0.992       .  S
O442        H443   0.992       .  S
C445        C446   1.405       .  A
C445        C450   1.413       .  A
C446        C447   1.401       .  A
C446        H451   1.071       .  S
C447        C448   1.414       .  A
C447        O452   1.372       .  S
C448        C449   1.405       .  A
C449        C450   1.398       .  A
C449        H453   1.070       .  S
C450        O454   1.372       .  S
O452        H456   0.992       .  S
O454        H455   0.992       .  S
C457        C458   1.404       .  A
C457        C462   1.419       .  A
C458        C459   1.404       .  A
C458        H463   1.072       .  S
C459        C460   1.418       .  A
C459        O464   1.372       .  S
C460        C461   1.403       .  A
C461        C462   1.400       .  A
C461        H465   1.074       .  S
C462        O466   1.373       .  S
O464        H468   0.991       .  S
O466        H467   0.991       .  S
C469        C470   1.406   1_655  A
C469       C1050   1.411       .  A
C470        C471   1.400       .  A
C470        H475   1.083       .  S
C471        C472   1.409   1_455  A
C471        O476   1.372       .  S
C472       C1049   1.408       .  A
C473       C1048   1.408       .  A
C473        C474   1.409       .  A
C473        H477   1.083       .  S
C474       C1045   1.411       .  A
C474        O478   1.371       .  S
O476        H480   0.992       .  S
O478        H479   0.992       .  S
C481       C1058   1.407       .  A
C481        C486   1.414   1_655  A
C482       C1057   1.407       .  A
C482        C483   1.396       .  A
C482        H487   1.082       .  S
C483       C1060   1.408       .  A
C483        O488   1.372       .  S
C484       C1059   1.408       .  A
C484        C485   1.403   1_655  A
C485        C486   1.404       .  A
C485        H489   1.084       .  S
C486        O490   1.371       .  S
O488        H492   0.992       .  S
O490        H491   0.992       .  S
C493        C494   1.402       .  A
C493       C1074   1.405   1_455  A
C494        C495   1.395       .  A
C494        H499   1.084       .  S
C495        C496   1.410       .  A
C495        O500   1.372       .  S
C496       C1073   1.407   1_455  A
C497       C1072   1.407       .  A
C497        C498   1.399       .  A
C497        H501   1.083       .  S
C498       C1069   1.405       .  A
C498        O502   1.371       .  S
O500        H504   0.992       .  S
O502        H503   0.992       .  S
C505        C506   1.403       .  A
C505       C1086   1.413   1_455  A
C506        C507   1.397       .  A
C506        H511   1.083       .  S
C507        C508   1.411       .  A
C507        O512   1.372       .  S
C508       C1085   1.402   1_455  A
C509       C1084   1.402       .  A
C509        C510   1.401       .  A
C509        H513   1.084       .  S
C510       C1081   1.413       .  A
C510        O514   1.372       .  S
O512        H516   0.992       .  S
O514        H515   0.992       .  S
C517        C518   1.403       .  A
C517       C1098   1.409   1_455  A
C518        C519   1.400       .  A
C518        H523   1.084       .  S
C519        C520   1.410       .  A
C519        O524   1.372       .  S
C520       C1097   1.406   1_455  A
C521       C1096   1.406       .  A
C521        C522   1.400       .  A
C521        H525   1.083       .  S
C522       C1093   1.409       .  A
C522        O526   1.372       .  S
O524        H528   0.992       .  S
O526        H527   0.991       .  S
C529        C530   1.405       .  A
C529        C534   1.411       .  A
C530        C531   1.394       .  A
C530        H535   1.083       .  S
C531        C532   1.407       .  A
C531        O536   1.372       .  S
C532        C533   1.403       .  A
C533        C534   1.403       .  A
C533        H537   1.084       .  S
C534        O538   1.371       .  S
O536        H540   0.992       .  S
O538        H539   0.992       .  S
C541        C542   1.408       .  A
C541        C546   1.413       .  A
C542        C543   1.402       .  A
C542        H547   1.082       .  S
C543        C544   1.407       .  A
C543        O548   1.371       .  S
C544        C545   1.399       .  A
C545        C546   1.392       .  A
C545        H549   1.084       .  S
C546        O550   1.372       .  S
O548        H552   0.992       .  S
O550        H551   0.992       .  S
C553        C554   1.408       .  A
C553        C558   1.412       .  A
C554        C555   1.400       .  A
C554        H559   1.082       .  S
C555        C556   1.406       .  A
C555        O560   1.371       .  S
C556        C557   1.404       .  A
C557        C558   1.398       .  A
C557        H561   1.084       .  S
C558        O562   1.371       .  S
O560        H564   0.992       .  S
O562        H563   0.992       .  S
C565        C566   1.403       .  A
C565        C570   1.408       .  A
C566        C567   1.404       .  A
C566        H571   1.084       .  S
C567        C568   1.413       .  A
C567        O572   1.371       .  S
C568        C569   1.406       .  A
C569        C570   1.398       .  A
C569        H573   1.082       .  S
C570        O574   1.372       .  S
O572        H576   0.992       .  S
O574        H575   0.992       .  S
O577        V585   1.893       .  S
O577        C587   1.263       .  A
O578        V873   1.896   1_554  S
O578        C588   1.264       .  A
O579        V585   1.891       .  S
O579        C589   1.262       .  A
O580        V873   1.886   1_554  S
O580        C590   1.262       .  A
O581        V586   1.904   1_554  S
O581        C590   1.265       .  A
O582        V874   1.904       .  S
O582        C589   1.266       .  A
O583        V586   1.902   1_554  S
O583        C588   1.265       .  A
O584        V874   1.899       .  S
O584        C587   1.264       .  A
V585        O866   1.896       .  S
V585        O868   1.886       .  S
V585        V874   2.088       .  T
V586        O870   1.904       .  S
V586        O872   1.899       .  S
V586        V873   2.088       .  T
C587        C820   1.472       .  S
C588        C853   1.479       .  S
C589        C844   1.475       .  S
C590        C832   1.470       .  S
O591        V599   1.884       .  S
O591        C601   1.261       .  A
O592        V887   1.890   1_545  S
O592        C602   1.262       .  A
O593        V599   1.902   1_545  S
O593        C603   1.266       .  A
O594        V887   1.904       .  S
O594        C604   1.266       .  A
O595        V888   1.893       .  S
O596        V600   1.896   1_545  S
O597        V888   1.902   1_545  S
O598        V600   1.903       .  S
V599        O880   1.890   1_564  S
V599        O882   1.904   1_554  S
V600        O883   1.893   1_554  S
V600        O885   1.902   1_564  S
C601        C781   1.470       .  S
C602        C796   1.477       .  S
C603        C805   1.477       .  S
C604        C772   1.478       .  S
C605        C607   1.542       .  S
C605        C609   1.532       .  S
C605        C608   1.552       .  S
C605        C736   1.539       .  S
C606        C610   1.552       .  S
C606        C612   1.535       .  S
C606        C611   1.541       .  S
C606        C745   1.540       .  S
C607        C615   1.378       .  A
C608        C619   1.383       .  A
C609        C623   1.379       .  A
C610        C613   1.387       .  A
C611        C617   1.378       .  A
C612        C620   1.376       .  A
C613        N614   1.361       .  A
C613        H626   1.079       .  S
N614        C760   1.447       .  S
C615        H616   1.082       .  S
C617        N618   1.357       .  A
C617        H627   1.082       .  S
N618        C793   1.441       .  S
C619        H625   1.077       .  S
C620        N621   1.358       .  A
C620        H622   1.081       .  S
N621        C808   1.442       .  S
C623        H624   1.082       .  S
C628        C630   1.543       .  S
C628        C632   1.524       .  S
C628        C631   1.549       .  S
C628        C724   1.545       .  S
C629        C633   1.566       .  S
C629        C635   1.530       .  S
C629        C634   1.539       .  S
C629        C712   1.546       .  S
C630        C638   1.373       .  A
C631        C642   1.383       .  A
C632        C646   1.372       .  A
C633        C636   1.394       .  A
C634        C640   1.374       .  A
C635        C643   1.375       .  A
C636        H649   1.077       .  S
N637        C638   1.355       .  A
N637        C757   1.448       .  S
C638        H639   1.081       .  S
C640        H650   1.082       .  S
N641        C642   1.360       .  A
N641        C769   1.447       .  S
C642        H648   1.076       .  S
C643        H645   1.082       .  S
N644        C646   1.358       .  A
N644        C784   1.438       .  S
C646        H647   1.081       .  S
C651        C653   1.556       .  S
C651        C655   1.526       .  S
C651        C654   1.534       .  S
C651        C709   1.545       .  S
C652        C656   1.551       .  S
C652        C658   1.530       .  S
C652        C657   1.548       .  S
C652        C721   1.542       .  S
C653        C661   1.387       .  A
C653        C656   1.409       .  A
C654        C665   1.369       .  A
C654        C657   1.395       .  A
C655        C669   1.371       .  A
C655        C658   1.383       .  A
C656        C659   1.377       .  A
C657        C663   1.385       .  A
C658        C666   1.378       .  A
C659        N660   1.358       .  A
C659        H672   1.082       .  S
N660        C661   1.362       .  A
N660        C697   1.448       .  S
C661        H662   1.077       .  S
C663        N664   1.360       .  A
C663        H673   1.080       .  S
N664        C665   1.355       .  A
N664        C829   1.441       .  S
C665        H671   1.081       .  S
C666        N667   1.361       .  A
C666        H668   1.081       .  S
N667        C669   1.357       .  A
N667        C817   1.440       .  S
C669        H670   1.082       .  S
C674        C676   1.552       .  S
C674        C678   1.532       .  S
C674        C677   1.541       .  S
C674        C748   1.540       .  S
C675        C679   1.540       .  S
C675        C681   1.537       .  S
C675        C680   1.557       .  S
C675        C733   1.539       .  S
C676        C684   1.385       .  A
C676        C679   1.398       .  A
C677        C688   1.378       .  A
C677        C680   1.400       .  A
C678        C692   1.376       .  A
C678        C681   1.383       .  A
C679        C682   1.380       .  A
C680        C686   1.386       .  A
C681        C689   1.380       .  A
C682        N683   1.360       .  A
C682        H695   1.082       .  S
N683        C684   1.361       .  A
N683        C700   1.449       .  S
C684        H685   1.080       .  S
C686        N687   1.359       .  A
C686        H696   1.076       .  S
N687        C688   1.357       .  A
N687        C856   1.446       .  S
C688        H694   1.081       .  S
C689        N690   1.360       .  A
C689        H691   1.081       .  S
N690        C692   1.358       .  A
N690        C841   1.444       .  S
C692        H693   1.082       .  S
C697        C698   1.405       .  A
C697        C702   1.412       .  A
C698        C699   1.401   1_565  A
C698        H703   1.083       .  S
C699        C700   1.413       .  A
C699        O704   1.371       .  S
C700        C701   1.407       .  A
C701        C702   1.405   1_545  A
C701        H705   1.083       .  S
C702        O706   1.370       .  S
O704        H708   0.992       .  S
O706        H707   0.992       .  S
C709        C710   1.402       .  A
C709        C714   1.422       .  A
C710        C711   1.407       .  A
C710        H715   1.074       .  S
C711        C712   1.423       .  A
C711        O716   1.372       .  S
C712        C713   1.401       .  A
C713        C714   1.403       .  A
C713        H717   1.073       .  S
C714        O718   1.372       .  S
O716        H720   0.992       .  S
O718        H719   0.992       .  S
C721        C722   1.409       .  A
C721        C726   1.413       .  A
C722        C723   1.408       .  A
C722        H727   1.075       .  S
C723        C724   1.416       .  A
C723        O728   1.374       .  S
C724        C725   1.408       .  A
C725        C726   1.404       .  A
C725        H729   1.075       .  S
C726        O730   1.374       .  S
O728        H732   0.992       .  S
O730        H731   0.992       .  S
C733        C734   1.405       .  A
C733        C738   1.413       .  A
C734        C735   1.401       .  A
C734        H739   1.071       .  S
C735        C736   1.414       .  A
C735        O740   1.372       .  S
C736        C737   1.405       .  A
C737        C738   1.398       .  A
C737        H741   1.070       .  S
C738        O742   1.372       .  S
O740        H744   0.992       .  S
O742        H743   0.992       .  S
C745        C746   1.404       .  A
C745        C750   1.419       .  A
C746        C747   1.404       .  A
C746        H751   1.072       .  S
C747        C748   1.418       .  A
C747        O752   1.372       .  S
C748        C749   1.403       .  A
C749        C750   1.400       .  A
C749        H753   1.074       .  S
C750        O754   1.373       .  S
O752        H756   0.991       .  S
O754        H755   0.991       .  S
C757        C758   1.406       .  A
C758        C759   1.400       .  A
C758        H763   1.083       .  S
C759        C760   1.409       .  A
C759        O764   1.372       .  S
C761        C762   1.409       .  A
C761        H765   1.083       .  S
C762        O766   1.371       .  S
O764        H768   0.992       .  S
O766        H767   0.992       .  S
C769        C774   1.414       .  A
C770        C771   1.396       .  A
C770        H775   1.082       .  S
C771        O776   1.372       .  S
C772        C773   1.403       .  A
C773        C774   1.404       .  A
C773        H777   1.084       .  S
C774        O778   1.371       .  S
O776        H780   0.992       .  S
O778        H779   0.992       .  S
C781        C782   1.402       .  A
C782        C783   1.395       .  A
C782        H787   1.084       .  S
C783        C784   1.410       .  A
C783        O788   1.372       .  S
C785        C786   1.399       .  A
C785        H789   1.083       .  S
C786        O790   1.371       .  S
O788        H792   0.992       .  S
O790        H791   0.992       .  S
C793        C794   1.403       .  A
C794        C795   1.397       .  A
C794        H799   1.083       .  S
C795        C796   1.411       .  A
C795        O800   1.372       .  S
C797        C798   1.401       .  A
C797        H801   1.084       .  S
C798        O802   1.372       .  S
O800        H804   0.992       .  S
O802        H803   0.992       .  S
C805        C806   1.403       .  A
C806        C807   1.400       .  A
C806        H811   1.084       .  S
C807        C808   1.410       .  A
C807        O812   1.372       .  S
C809        C810   1.400       .  A
C809        H813   1.083       .  S
C810        O814   1.372       .  S
O812        H816   0.992       .  S
O814        H815   0.991       .  S
C817        C818   1.405       .  A
C817        C822   1.411       .  A
C818        C819   1.394       .  A
C818        H823   1.083       .  S
C819        C820   1.407       .  A
C819        O824   1.372       .  S
C820        C821   1.403       .  A
C821        C822   1.403       .  A
C821        H825   1.084       .  S
C822        O826   1.371       .  S
O824        H828   0.992       .  S
O826        H827   0.992       .  S
C829        C830   1.408       .  A
C829        C834   1.413       .  A
C830        C831   1.402       .  A
C830        H835   1.082       .  S
C831        C832   1.407       .  A
C831        O836   1.371       .  S
C832        C833   1.399       .  A
C833        C834   1.392       .  A
C833        H837   1.084       .  S
C834        O838   1.372       .  S
O836        H840   0.992       .  S
O838        H839   0.992       .  S
C841        C842   1.408       .  A
C841        C846   1.412       .  A
C842        C843   1.400       .  A
C842        H847   1.082       .  S
C843        C844   1.406       .  A
C843        O848   1.371       .  S
C844        C845   1.404       .  A
C845        C846   1.398       .  A
C845        H849   1.084       .  S
C846        O850   1.371       .  S
O848        H852   0.992       .  S
O850        H851   0.992       .  S
C853        C854   1.403       .  A
C853        C858   1.408       .  A
C854        C855   1.404       .  A
C854        H859   1.084       .  S
C855        C856   1.413       .  A
C855        O860   1.371       .  S
C856        C857   1.406       .  A
C857        C858   1.398       .  A
C857        H861   1.082       .  S
C858        O862   1.372       .  S
O860        H864   0.992       .  S
O862        H863   0.992       .  S
O865        V873   1.893       .  S
O865        C875   1.263       .  A
O866        C876   1.264       .  A
O867        V873   1.891       .  S
O867        C877   1.262       .  A
O868        C878   1.262       .  A
O869        V874   1.904       .  S
O869        C878   1.265       .  A
O870        C877   1.266       .  A
O871        V874   1.902       .  S
O871        C876   1.265       .  A
O872        C875   1.264       .  A
C875       C1108   1.472       .  S
C876       C1141   1.479       .  S
C877       C1132   1.475       .  S
C878       C1120   1.470       .  S
O879        V887   1.884       .  S
O879        C889   1.261       .  A
O880        C890   1.262       .  A
O881        V887   1.902   1_545  S
O881        C891   1.266       .  A
O882        C892   1.266       .  A
O884        V888   1.896   1_545  S
O886        V888   1.903       .  S
C889       C1069   1.470       .  S
C890       C1084   1.477       .  S
C891       C1093   1.477       .  S
C892       C1060   1.478       .  S
C893        C895   1.542       .  S
C893        C897   1.532       .  S
C893        C896   1.552       .  S
C893       C1024   1.539       .  S
C894        C898   1.552       .  S
C894        C900   1.535       .  S
C894        C899   1.541       .  S
C894       C1033   1.540       .  S
C895        C903   1.378       .  A
C896        C907   1.383       .  A
C897        C911   1.379       .  A
C898        C901   1.387       .  A
C899        C905   1.378       .  A
C900        C908   1.376       .  A
C901        N902   1.361       .  A
C901        H914   1.079       .  S
N902       C1048   1.447       .  S
C903        H904   1.082       .  S
C905        N906   1.357       .  A
C905        H915   1.082       .  S
N906       C1081   1.441       .  S
C907        H913   1.077       .  S
C908        N909   1.358       .  A
C908        H910   1.081       .  S
N909       C1096   1.442       .  S
C911        H912   1.082       .  S
C916        C918   1.543       .  S
C916        C920   1.524       .  S
C916        C919   1.549       .  S
C916       C1012   1.545       .  S
C917        C921   1.566       .  S
C917        C923   1.530       .  S
C917        C922   1.539       .  S
C917       C1000   1.546       .  S
C918        C926   1.373       .  A
C919        C930   1.383       .  A
C920        C934   1.372       .  A
C921        C924   1.394       .  A
C922        C928   1.374       .  A
C923        C931   1.375       .  A
C924        H937   1.077       .  S
N925        C926   1.355       .  A
N925       C1045   1.448       .  S
C926        H927   1.081       .  S
C928        H938   1.082       .  S
N929        C930   1.360       .  A
N929       C1057   1.447       .  S
C930        H936   1.076       .  S
C931        H933   1.082       .  S
N932        C934   1.358       .  A
N932       C1072   1.438       .  S
C934        H935   1.081       .  S
C939        C941   1.556       .  S
C939        C943   1.526       .  S
C939        C942   1.534       .  S
C939        C997   1.545       .  S
C940        C944   1.551       .  S
C940        C946   1.530       .  S
C940        C945   1.548       .  S
C940       C1009   1.542       .  S
C941        C949   1.387       .  A
C941        C944   1.409       .  A
C942        C953   1.369       .  A
C942        C945   1.395       .  A
C943        C957   1.371       .  A
C943        C946   1.383       .  A
C944        C947   1.377       .  A
C945        C951   1.385       .  A
C946        C954   1.378       .  A
C947        N948   1.358       .  A
C947        H960   1.082       .  S
N948        C949   1.362       .  A
N948        C985   1.448       .  S
C949        H950   1.077       .  S
C951        N952   1.360       .  A
C951        H961   1.080       .  S
N952        C953   1.355       .  A
N952       C1117   1.441       .  S
C953        H959   1.081       .  S
C954        N955   1.361       .  A
C954        H956   1.081       .  S
N955        C957   1.357       .  A
N955       C1105   1.440       .  S
C957        H958   1.082       .  S
C962        C964   1.552       .  S
C962        C966   1.532       .  S
C962        C965   1.541       .  S
C962       C1036   1.540       .  S
C963        C967   1.540       .  S
C963        C969   1.537       .  S
C963        C968   1.557       .  S
C963       C1021   1.539       .  S
C964        C972   1.385       .  A
C964        C967   1.398       .  A
C965        C976   1.378       .  A
C965        C968   1.400       .  A
C966        C980   1.376       .  A
C966        C969   1.383       .  A
C967        C970   1.380       .  A
C968        C974   1.386       .  A
C969        C977   1.380       .  A
C970        N971   1.360       .  A
C970        H983   1.082       .  S
N971        C972   1.361       .  A
N971        C988   1.449       .  S
C972        H973   1.080       .  S
C974        N975   1.359       .  A
C974        H984   1.076       .  S
N975        C976   1.357       .  A
N975       C1144   1.446       .  S
C976        H982   1.081       .  S
C977        N978   1.360       .  A
C977        H979   1.081       .  S
N978        C980   1.358       .  A
N978       C1129   1.444       .  S
C980        H981   1.082       .  S
C985        C986   1.405       .  A
C985        C990   1.412       .  A
C986        C987   1.401   1_565  A
C986        H991   1.083       .  S
C987        C988   1.413       .  A
C987        O992   1.371       .  S
C988        C989   1.407       .  A
C989        C990   1.405   1_545  A
C989        H993   1.083       .  S
C990        O994   1.370       .  S
O992        H996   0.992       .  S
O994        H995   0.992       .  S
C997        C998   1.402       .  A
C997       C1002   1.422       .  A
C998        C999   1.407       .  A
C998       H1003   1.074       .  S
C999       C1000   1.423       .  A
C999       O1004   1.372       .  S
C1000      C1001   1.401       .  A
C1001      C1002   1.403       .  A
C1001      H1005   1.073       .  S
C1002      O1006   1.372       .  S
O1004      H1008   0.992       .  S
O1006      H1007   0.992       .  S
C1009      C1010   1.409       .  A
C1009      C1014   1.413       .  A
C1010      C1011   1.408       .  A
C1010      H1015   1.075       .  S
C1011      C1012   1.416       .  A
C1011      O1016   1.374       .  S
C1012      C1013   1.408       .  A
C1013      C1014   1.404       .  A
C1013      H1017   1.075       .  S
C1014      O1018   1.374       .  S
O1016      H1020   0.992       .  S
O1018      H1019   0.992       .  S
C1021      C1022   1.405       .  A
C1021      C1026   1.413       .  A
C1022      C1023   1.401       .  A
C1022      H1027   1.071       .  S
C1023      C1024   1.414       .  A
C1023      O1028   1.372       .  S
C1024      C1025   1.405       .  A
C1025      C1026   1.398       .  A
C1025      H1029   1.070       .  S
C1026      O1030   1.372       .  S
O1028      H1032   0.992       .  S
O1030      H1031   0.992       .  S
C1033      C1034   1.404       .  A
C1033      C1038   1.419       .  A
C1034      C1035   1.404       .  A
C1034      H1039   1.072       .  S
C1035      C1036   1.418       .  A
C1035      O1040   1.372       .  S
C1036      C1037   1.403       .  A
C1037      C1038   1.400       .  A
C1037      H1041   1.074       .  S
C1038      O1042   1.373       .  S
O1040      H1044   0.991       .  S
O1042      H1043   0.991       .  S
C1045      C1046   1.406       .  A
C1046      C1047   1.400       .  A
C1046      H1051   1.083       .  S
C1047      C1048   1.409       .  A
C1047      O1052   1.372       .  S
C1049      C1050   1.409       .  A
C1049      H1053   1.083       .  S
C1050      O1054   1.371       .  S
O1052      H1056   0.992       .  S
O1054      H1055   0.992       .  S
C1057      C1062   1.414       .  A
C1058      C1059   1.396       .  A
C1058      H1063   1.082       .  S
C1059      O1064   1.372       .  S
C1060      C1061   1.403       .  A
C1061      C1062   1.404       .  A
C1061      H1065   1.084       .  S
C1062      O1066   1.371       .  S
O1064      H1068   0.992       .  S
O1066      H1067   0.992       .  S
C1069      C1070   1.402       .  A
C1070      C1071   1.395       .  A
C1070      H1075   1.084       .  S
C1071      C1072   1.410       .  A
C1071      O1076   1.372       .  S
C1073      C1074   1.399       .  A
C1073      H1077   1.083       .  S
C1074      O1078   1.371       .  S
O1076      H1080   0.992       .  S
O1078      H1079   0.992       .  S
C1081      C1082   1.403       .  A
C1082      C1083   1.397       .  A
C1082      H1087   1.083       .  S
C1083      C1084   1.411       .  A
C1083      O1088   1.372       .  S
C1085      C1086   1.401       .  A
C1085      H1089   1.084       .  S
C1086      O1090   1.372       .  S
O1088      H1092   0.992       .  S
O1090      H1091   0.992       .  S
C1093      C1094   1.403       .  A
C1094      C1095   1.400       .  A
C1094      H1099   1.084       .  S
C1095      C1096   1.410       .  A
C1095      O1100   1.372       .  S
C1097      C1098   1.400       .  A
C1097      H1101   1.083       .  S
C1098      O1102   1.372       .  S
O1100      H1104   0.992       .  S
O1102      H1103   0.991       .  S
C1105      C1106   1.405       .  A
C1105      C1110   1.411       .  A
C1106      C1107   1.394       .  A
C1106      H1111   1.083       .  S
C1107      C1108   1.407       .  A
C1107      O1112   1.372       .  S
C1108      C1109   1.403       .  A
C1109      C1110   1.403       .  A
C1109      H1113   1.084       .  S
C1110      O1114   1.371       .  S
O1112      H1116   0.992       .  S
O1114      H1115   0.992       .  S
C1117      C1118   1.408       .  A
C1117      C1122   1.413       .  A
C1118      C1119   1.402       .  A
C1118      H1123   1.082       .  S
C1119      C1120   1.407       .  A
C1119      O1124   1.371       .  S
C1120      C1121   1.399       .  A
C1121      C1122   1.392       .  A
C1121      H1125   1.084       .  S
C1122      O1126   1.372       .  S
O1124      H1128   0.992       .  S
O1126      H1127   0.992       .  S
C1129      C1130   1.408       .  A
C1129      C1134   1.412       .  A
C1130      C1131   1.400       .  A
C1130      H1135   1.082       .  S
C1131      C1132   1.406       .  A
C1131      O1136   1.371       .  S
C1132      C1133   1.404       .  A
C1133      C1134   1.398       .  A
C1133      H1137   1.084       .  S
C1134      O1138   1.371       .  S
O1136      H1140   0.992       .  S
O1138      H1139   0.992       .  S
C1141      C1142   1.403       .  A
C1141      C1146   1.408       .  A
C1142      C1143   1.404       .  A
C1142      H1147   1.084       .  S
C1143      C1144   1.413       .  A
C1143      O1148   1.371       .  S
C1144      C1145   1.406       .  A
C1145      C1146   1.398       .  A
C1145      H1149   1.082       .  S
C1146      O1150   1.372       .  S
O1148      H1152   0.992       .  S
O1150      H1151   0.992       .  S
