geometry optimzed in LAMMPS
_audit_creation_date              2020-11-30 
_audit_creation_method            'lammps2cif' 
_symmetry_space_group_name_H-M    'P1' 
_symmetry_Int_Tables_number       1 
_symmetry_cell_setting            triclinic 
loop_ 
_symmetry_equiv_pos_as_xyz 
  x,y,z 
_cell_length_a                    25.78959329 
_cell_length_b                    36.518530627324864 
_cell_length_c                    51.11801677051015 
_cell_angle_alpha                 89.99039517774509 
_cell_angle_beta                  89.65936869940177 
_cell_angle_gamma                 90.04478793436326 
loop_ 
_atom_site_label 
_atom_site_type_symbol 
_atom_site_fract_x 
_atom_site_fract_y 
_atom_site_fract_z 
_atom_site_charge 
O1          O  0.54185179  0.53961259  0.47055992    -0.72800
O2          O  0.55073438  0.46497084  0.02764483    -0.73800
O3          O  0.55023784  0.46216701  0.47177128    -0.62400
O4          O  0.54237492  0.54209876  0.02587890    -0.70800
O5          O  0.45671186  0.53811252  0.02617444    -0.70300
O6          O  0.46451848  0.45739898  0.47265752    -0.61600
O7          O  0.46507844  0.46091918  0.02812187    -0.74100
O8          O  0.45618981  0.53541654  0.47056754    -0.72900
Cu9        Cu  0.54923937  0.50233269  0.99889179     1.04600
Cu10       Cu  0.45763467  0.49776632  0.49934594     1.04300
C11         C  0.49795303  0.54968113  0.46162119     0.93400
C12         C  0.50910543  0.45157279  0.03733494     0.92600
C13         C  0.50853157  0.44712784  0.46365895     0.84700
C14         C  0.49839968  0.55254509  0.03482261     0.91000
O15         O  0.03646200  0.95412333  0.02621786    -0.72800
O16         O  0.04543280  0.03510943  0.47310042    -0.73800
O17         O  0.04306328  0.03164149  0.02889541    -0.62400
O18         O  0.03939045  0.95808573  0.47085487    -0.70800
O19         O  0.95338067  0.95993710  0.47083569    -0.70300
O20         O  0.95733223  0.03549832  0.02791002    -0.61600
O21         O  0.95976302  0.03781039  0.47207262    -0.74100
O22         O  0.95061896  0.95843263  0.02654439    -0.72900
Cu23       Cu  0.04402895  0.99463860  0.99981514     1.04600
Cu24       Cu  0.95225943  0.99808240  0.99929377     1.04300
C25         C  0.99228376  0.94387687  0.03503057     0.93400
C26         C  0.00395971  0.04883069  0.46369643     0.92600
C27         C  0.00073543  0.04506665  0.03775608     0.84700
C28         C  0.99602925  0.94737650  0.46166973     0.91000
C29         C  0.94407234  0.26621960  0.24937975     0.30200
C30         C  0.05081359  0.26829943  0.24882338     0.30200
C31         C  0.96889337  0.30494944  0.25020640    -0.06000
C32         C  0.97148837  0.24754522  0.27263135    -0.06800
C33         C  0.97089205  0.24914661  0.22547577    -0.06700
C34         C  0.02314871  0.30559907  0.24976617    -0.06000
C35         C  0.02547751  0.24727721  0.27181269    -0.06800
C36         C  0.02481023  0.24943967  0.22525989    -0.06700
C37         C  0.03866888  0.34161881  0.25152940    -0.32100
N38         N  0.99581962  0.36301428  0.25351345     0.14400
C39         C  0.95320654  0.34107949  0.25297604    -0.32100
H40         H  0.91403681  0.35099013  0.25556457     0.16400
C41         C  0.04172778  0.22588137  0.29254030    -0.31100
N42         N  0.99955944  0.21495373  0.30654870     0.13100
C43         C  0.95669274  0.22888750  0.29496552    -0.31000
C44         C  0.03996254  0.22794667  0.20432995    -0.31300
N45         N  0.99718366  0.21672808  0.19121182     0.13700
H46         H  0.07902869  0.21959545  0.19941991     0.16300
C47         C  0.95472674  0.22948870  0.20403112    -0.31300
H48         H  0.91501235  0.22304843  0.19906305     0.16300
H49         H  0.91748731  0.22529668  0.30217904     0.16300
H50         H  0.07823237  0.35153400  0.25167874     0.16400
H51         H  0.08123805  0.21819035  0.29693577     0.16300
C52         C  0.05481497  0.73325434  0.24835419     0.30200
C53         C  0.94814576  0.73222114  0.24731854     0.30200
C54         C  0.02916551  0.69548338  0.25365457    -0.06000
C55         C  0.02683217  0.75694593  0.26896503    -0.06800
C56         C  0.02925160  0.74519475  0.22271220    -0.06700
C57         C  0.97469155  0.69476255  0.25269416    -0.06000
C58         C  0.97306705  0.75687389  0.26790584    -0.06800
C59         C  0.97550833  0.74365882  0.22182463    -0.06700
C60         C  0.96019898  0.65837575  0.25489272    -0.32100
N61         N  0.00320171  0.63751482  0.25840895     0.14400
C62         C  0.04532171  0.65998176  0.25819720    -0.32100
H63         H  0.08492632  0.65093862  0.26062150     0.16400
C64         C  0.95474531  0.77563860  0.28937459    -0.31100
N65         N  0.99589204  0.78642311  0.30374983     0.13100
C66         C  0.03979997  0.77396297  0.29215954    -0.31000
C67         C  0.96102892  0.75624639  0.19752352    -0.31300
N68         N  0.00414087  0.76733624  0.18441383     0.13700
H69         H  0.92182365  0.75956367  0.19051509     0.16300
C70         C  0.04605977  0.76068692  0.19961211    -0.31300
H71         H  0.08555153  0.76821886  0.19471802     0.16300
H72         H  0.07806289  0.77645169  0.30054324     0.16300
H73         H  0.92170209  0.64720294  0.25249139     0.16400
H74         H  0.91452910  0.77975716  0.29479786     0.16300
C75         C  0.55489830  0.76819628  0.24904047     0.30200
C76         C  0.44812725  0.76767391  0.24849687     0.30200
C77         C  0.52834420  0.80653072  0.25036331    -0.06000
C78         C  0.52916812  0.75209820  0.22448605    -0.06800
C79         C  0.52795994  0.74800342  0.27162304    -0.06700
C80         C  0.47376961  0.80604141  0.25064584    -0.06000
C81         C  0.47543953  0.75114605  0.22461085    -0.06800
C82         C  0.47415459  0.74788775  0.27159084    -0.06700
C83         C  0.45747152  0.84196020  0.25298817    -0.32100
N84         N  0.49952355  0.86441959  0.25234002     0.14400
C85         C  0.54272520  0.84313215  0.25065762    -0.32100
H86         H  0.58158384  0.85395113  0.24937843     0.16400
C87         C  0.45998030  0.73359313  0.20211664    -0.31100
N88         N  0.50287562  0.72418332  0.18816499     0.13100
C89         C  0.54520411  0.73637204  0.20126535    -0.31000
C90         C  0.45861302  0.73117775  0.29455802    -0.31300
N91         N  0.50118677  0.72002400  0.30774143     0.13700
H92         H  0.41931462  0.72768453  0.30164310     0.16300
C93         C  0.54390282  0.73060378  0.29412556    -0.31300
H94         H  0.58354109  0.72549338  0.29993250     0.16300
H95         H  0.58487443  0.73314947  0.19465549     0.16300
H96         H  0.41779822  0.85128087  0.25467133     0.16400
H97         H  0.42052254  0.72701952  0.19673378     0.16300
C98         C  0.44295263  0.23607785  0.25163271     0.30200
C99         C  0.54943456  0.23428411  0.25136843     0.30200
C100        C  0.46747580  0.19794686  0.24658380    -0.06000
C101        C  0.47032240  0.26011214  0.23136953    -0.06800
C102        C  0.46970538  0.24686499  0.27745272    -0.06700
C103        C  0.52222511  0.19694128  0.24621093    -0.06000
C104        C  0.52376282  0.25923540  0.23125480    -0.06800
C105        C  0.52364859  0.24573606  0.27735979    -0.06700
C106        C  0.53590362  0.16070387  0.25047945    -0.32100
N107        N  0.49246747  0.13974353  0.25208008     0.14400
C108        C  0.45097590  0.16254181  0.25148172    -0.32100
H109        H  0.41168758  0.15422526  0.25604502     0.16400
C110        C  0.54047616  0.27973617  0.21023720    -0.31100
N111        N  0.49835523  0.29317813  0.19766046     0.13100
C112        C  0.45519865  0.28095585  0.21031011    -0.31000
C113        C  0.53984062  0.25765022  0.30159286    -0.31300
N114        N  0.49750743  0.26694761  0.31603342     0.13700
H115        H  0.57953678  0.26158247  0.30769708     0.16300
C116        C  0.45456781  0.25968170  0.30169739    -0.31300
H117        H  0.41529740  0.26503672  0.30818864     0.16300
H118        H  0.41573177  0.28537623  0.20397504     0.16300
H119        H  0.57459961  0.15036626  0.25363078     0.16400
H120        H  0.58034876  0.28389166  0.20419431     0.16300
C121        C  0.49816071  0.90411052  0.25322446    -0.19700
C122        C  0.53108188  0.92565841  0.23715079     0.36500
C123        C  0.52925131  0.96415087  0.23893222    -0.25700
C124        C  0.49427349  0.98172573  0.25583646     0.02900
C125        C  0.46058697  0.96048357  0.27147098     0.27800
C126        C  0.46292766  0.92193642  0.27006027    -0.24800
N127        N  0.56509521  0.90848029  0.21849081    -0.82200
H128        H  0.55449461  0.98064911  0.22666485     0.13600
C129        C  0.49254952  0.02246897  0.25632604     0.02900
N130        N  0.42408945  0.97819269  0.28863749    -0.80800
H131        H  0.43752191  0.90565764  0.28235963     0.18400
C132        C  0.45417487  0.04078995  0.24213235    -0.25600
C133        C  0.45340829  0.07931336  0.24052644     0.36400
C134        C  0.49090205  0.10015210  0.25419449    -0.19600
C135        C  0.52891917  0.08156160  0.26869236    -0.24900
C136        C  0.53027528  0.04298791  0.26974982     0.27800
H137        H  0.42572169  0.02484673  0.23154653     0.13500
N138        N  0.41597816  0.09721214  0.22420157    -0.82200
H139        H  0.55777082  0.09719484  0.27918605     0.18400
N140        N  0.57020196  0.02448107  0.28410225    -0.80800
H141        H  0.39130998  0.07806088  0.21552495     0.34000
H142        H  0.43622472  0.11003414  0.20896184     0.38500
H143        H  0.59537751  0.04342538  0.29264668     0.34000
H144        H  0.55233079  0.01025977  0.29944753     0.30700
H145        H  0.40179508  0.95875280  0.29867064     0.34000
H146        H  0.44523786  0.99243610  0.30275304     0.30700
H147        H  0.54194416  0.89500307  0.20479561     0.38600
H148        H  0.58651352  0.92811493  0.20817477     0.34000
C149        C  0.61407286  0.76320410  0.25039229    -0.19700
C150        C  0.63732271  0.72866570  0.24465678     0.36500
C151        C  0.69140781  0.72499854  0.24513760    -0.25700
C152        C  0.72325186  0.75348705  0.25370576     0.02900
C153        C  0.70025853  0.78639029  0.26236944     0.27800
C154        C  0.64615427  0.79081020  0.26066629    -0.24800
N155        N  0.60625516  0.69700058  0.23875473    -0.82200
H156        H  0.70889641  0.69936945  0.23908826     0.13600
C157        C  0.78046892  0.74817452  0.25331504     0.02900
N158        N  0.73179174  0.81484771  0.27347381    -0.80800
H159        H  0.62932980  0.81504100  0.26902718     0.18400
C160        C  0.81196680  0.77454346  0.24135112    -0.25600
C161        C  0.86579702  0.77014497  0.23996619     0.36400
C162        C  0.88903752  0.73673851  0.24804437    -0.19600
C163        C  0.85756834  0.71158965  0.26169750    -0.24900
C164        C  0.80384796  0.71708448  0.26463600     0.27800
H165        H  0.79485329  0.79927457  0.23349907     0.13500
N166        N  0.89681698  0.80083210  0.23202570    -0.82200
H167        H  0.87482489  0.68895372  0.27189115     0.18400
N168        N  0.77322192  0.69189093  0.27987031    -0.80800
H169        H  0.88414039  0.80958509  0.21367057     0.34000
H170        H  0.89011130  0.82218326  0.24524934     0.38500
H171        H  0.79619516  0.67058608  0.28701900     0.34000
H172        H  0.75912129  0.70611136  0.29617792     0.30700
H173        H  0.70907398  0.83733587  0.27887863     0.34000
H174        H  0.74808317  0.80454678  0.29064985     0.30700
H175        H  0.58659848  0.68920079  0.25576157     0.38600
H176        H  0.62952245  0.67470302  0.23355691     0.34000
C177        C  0.11418428  0.73696132  0.24674975    -0.19700
C178        C  0.14562962  0.71179299  0.23265912     0.36500
C179        C  0.19974662  0.71711357  0.23149643    -0.25700
C180        C  0.22303279  0.74800550  0.24277311     0.02900
C181        C  0.19160911  0.77487158  0.25443150     0.27800
C182        C  0.13779577  0.76972867  0.25531976    -0.24800
N183        N  0.12276049  0.68166092  0.21880194    -0.82200
H184        H  0.22395451  0.69733984  0.22140920     0.13600
C185        C  0.28034833  0.75190683  0.24262321     0.02900
N186        N  0.21452089  0.80730490  0.26541527    -0.80800
H187        H  0.11448521  0.79237507  0.26201127     0.18400
C188        C  0.30373500  0.78214168  0.23037403    -0.25600
C189        C  0.35782585  0.78757552  0.23128444     0.36400
C190        C  0.38890821  0.76366807  0.24646263    -0.19600
C191        C  0.36547171  0.73106067  0.25556746    -0.24900
C192        C  0.31172274  0.72565641  0.25483787     0.27800
H193        H  0.27967408  0.80118719  0.21964491     0.13500
N194        N  0.38106835  0.81609504  0.21580790    -0.82200
H195        H  0.38901051  0.70888592  0.26276258     0.18400
N196        N  0.28885748  0.69364192  0.26658655    -0.80800
H197        H  0.35276268  0.83114542  0.20596748     0.34000
H198        H  0.40402213  0.80367695  0.20142530     0.38500
H199        H  0.31739458  0.67688355  0.27472219     0.34000
H200        H  0.26538322  0.70238694  0.28211635     0.30700
H201        H  0.18596272  0.82454852  0.27320471     0.34000
H202        H  0.23762985  0.79916960  0.28109858     0.30700
H203        H  0.10036528  0.69239914  0.20366667     0.38600
H204        H  0.15131858  0.66551558  0.20993474     0.34000
C205        C  0.60859283  0.23822374  0.25003558    -0.19900
C206        C  0.63265449  0.27172414  0.25716336     0.36500
C207        C  0.68661541  0.27540875  0.25575436    -0.25700
C208        C  0.71779885  0.24766969  0.24520596     0.02900
C209        C  0.69372290  0.21558695  0.23557843     0.27800
C210        C  0.63968905  0.21121134  0.23820661    -0.24800
N211        N  0.60231967  0.30289904  0.26473037    -0.82200
H212        H  0.70411761  0.30045706  0.26284945     0.13600
C213        C  0.77534625  0.25249205  0.24482486     0.02900
N214        N  0.72397901  0.18794791  0.22252380    -0.80800
H215        H  0.62200220  0.18753942  0.22941548     0.18400
C216        C  0.80681226  0.22378833  0.25345163    -0.25600
C217        C  0.86101335  0.22678331  0.25349545     0.36400
C218        C  0.88486746  0.26124710  0.24821007    -0.19600
C219        C  0.85332803  0.28919040  0.23799776    -0.24900
C220        C  0.79916781  0.28518356  0.23608913     0.27800
H221        H  0.78903541  0.19840058  0.25980169     0.13500
N222        N  0.89141366  0.19447736  0.25831880    -0.82200
H223        H  0.87081678  0.31352944  0.22995945     0.18400
N224        N  0.76849899  0.31388959  0.22473329    -0.80800
H225        H  0.86774384  0.17208851  0.26287730     0.34000
H226        H  0.91091927  0.18757694  0.24108495     0.38500
H227        H  0.79178223  0.33615072  0.21939436     0.34000
H228        H  0.75235984  0.30365907  0.20749882     0.30700
H229        H  0.70059275  0.16604156  0.21672157     0.34000
H230        H  0.73924495  0.19959430  0.20545159     0.30700
H231        H  0.60955145  0.32389158  0.25127973     0.38600
H232        H  0.61511713  0.31188585  0.28300885     0.34000
C233        C  0.11031365  0.27111859  0.24873234    -0.19700
C234        C  0.13897344  0.27667993  0.27200783     0.36500
C235        C  0.19322140  0.27279822  0.27148753    -0.25700
C236        C  0.22003997  0.26697796  0.24791512     0.02900
C237        C  0.19241912  0.26803058  0.22424253     0.27800
C238        C  0.13808827  0.27072649  0.22490827    -0.24800
N239        N  0.11329458  0.28654463  0.29602381    -0.82200
H240        H  0.21465893  0.27400900  0.28962773     0.13600
C241        C  0.27678981  0.25965990  0.24831960     0.02900
N242        N  0.21968818  0.26645166  0.19964624    -0.80800
H243        H  0.11773798  0.27324373  0.20661838     0.18400
C244        C  0.29630784  0.22829816  0.23584077    -0.25600
C245        C  0.34965134  0.22010964  0.23583196     0.36400
C246        C  0.38404373  0.24209102  0.25067025    -0.19600
C247        C  0.36442835  0.27502961  0.26127540    -0.24900
C248        C  0.31149349  0.28374004  0.26066541     0.27800
H249        H  0.26978188  0.21047605  0.22551370     0.13500
N250        N  0.36876940  0.19117418  0.21940570    -0.82200
H251        H  0.39084650  0.29484463  0.26955470     0.18400
N252        N  0.29303516  0.31728191  0.27213487    -0.80800
H253        H  0.33835771  0.17784123  0.20989001     0.34000
H254        H  0.39174844  0.20314445  0.20480641     0.38500
H255        H  0.32350311  0.33182088  0.28068107     0.34000
H256        H  0.27872279  0.33363549  0.25702743     0.30700
H257        H  0.19369971  0.26725993  0.18403811     0.34000
H258        H  0.24265702  0.28998336  0.19820236     0.30700
H259        H  0.09693441  0.31241625  0.29348637     0.38600
H260        H  0.13998409  0.28900124  0.31126487     0.34000
C261        C  0.00350976  0.59793132  0.25976921    -0.19700
C262        C  0.03809515  0.57700256  0.24429739     0.36500
C263        C  0.03529634  0.53849505  0.24492614    -0.25700
C264        C  0.99853381  0.52037187  0.26054033     0.02900
C265        C  0.96437638  0.54105150  0.27630499     0.27800
C266        C  0.96704565  0.57964254  0.27567021    -0.24800
N267        N  0.07481944  0.59491443  0.22735988    -0.82200
H268        H  0.06131477  0.52243873  0.23279827     0.13600
C269        C  0.99551187  0.47972010  0.25940146     0.02900
N270        N  0.92731614  0.52277267  0.29288431    -0.80800
H271        H  0.94054649  0.59563614  0.28756083     0.18400
C272        C  0.02346419  0.45861711  0.27739803    -0.25600
C273        C  0.02381269  0.42006569  0.27583002     0.36400
C274        C  0.99545719  0.40236315  0.25597163    -0.19600
C275        C  0.96680926  0.42349595  0.23825820    -0.24900
C276        C  0.96690474  0.46203786  0.23963710     0.27800
H277        H  0.04547527  0.47232094  0.29250574     0.13500
N278        N  0.05254300  0.39871692  0.29436793    -0.82200
H279        H  0.94523710  0.40978317  0.22300192     0.18400
N280        N  0.93902755  0.48337454  0.22073736    -0.80800
H281        H  0.07116973  0.41577292  0.30779964     0.34000
H282        H  0.02595220  0.38296603  0.30502428     0.38500
H283        H  0.92074147  0.46629795  0.20722421     0.34000
H284        H  0.90961332  0.49742946  0.23068864     0.30700
H285        H  0.90546271  0.54188755  0.30346692     0.34000
H286        H  0.90136700  0.50879031  0.28085130     0.30700
H287        H  0.05386163  0.60920870  0.21320265     0.38600
H288        H  0.09747118  0.57568305  0.21735998     0.34000
C289        C  0.99587450  0.92120264  0.43967898    -0.19700
C290        C  0.95805374  0.89339187  0.43750262     0.36500
C291        C  0.95892312  0.87014839  0.41558606    -0.25700
C292        C  0.99686998  0.87422890  0.39609388     0.02900
C293        C  0.03509116  0.90151230  0.39841132     0.27800
C294        C  0.03435410  0.92466711  0.42028287    -0.24800
N295        N  0.91948224  0.88858190  0.45762639    -0.82200
H296        H  0.92987651  0.84888513  0.41357889     0.13600
C297        C  0.99529570  0.85050451  0.37283445     0.02900
N298        N  0.07373278  0.90601840  0.37826521    -0.80800
H299        H  0.06330262  0.94606052  0.42192916     0.18400
C300        C  0.96903770  0.86283604  0.35061543    -0.25600
C301        C  0.96812836  0.84168242  0.32772359     0.36400
C302        C  0.99382234  0.80764835  0.32727751    -0.19600
C303        C  0.01985298  0.79525898  0.34958533    -0.24900
C304        C  0.02071617  0.81640399  0.37250432     0.27800
H305        H  0.94989236  0.88924016  0.35108725     0.13500
N306        N  0.94246012  0.85490833  0.30470370    -0.82200
H307        H  0.03953087  0.76907603  0.34898141     0.18400
N308        N  0.04703649  0.80346039  0.39542301    -0.80800
H309        H  0.92559321  0.88047365  0.30825335     0.34000
H310        H  0.97072434  0.85889264  0.29023197     0.38500
H311        H  0.06309238  0.77761590  0.39200773     0.34000
H312        H  0.07806617  0.82116601  0.39901279     0.30700
H313        H  0.09847313  0.92780095  0.38274055     0.34000
H314        H  0.09664986  0.88242627  0.37799708     0.30700
H315        H  0.93870246  0.88095018  0.47473184     0.38600
H316        H  0.89459292  0.86695936  0.45294324     0.34000
C317        C  0.00386999  0.78986051  0.16139752    -0.19700
C318        C  0.97688329  0.77900763  0.13879114     0.36500
C319        C  0.97417172  0.80304538  0.11733173    -0.25700
C320        C  0.99723837  0.83778617  0.11842863     0.02900
C321        C  0.02428017  0.84860919  0.14100539     0.27800
C322        C  0.02772827  0.82435850  0.16220803    -0.24800
N323        N  0.95225398  0.74374275  0.13788171    -0.82200
H324        H  0.95352123  0.79496280  0.09985712     0.13600
C325        C  0.99288785  0.86294040  0.09591012     0.02900
N326        N  0.04728260  0.88442692  0.14240994    -0.80800
H327        H  0.04766947  0.83274312  0.17981169     0.18400
C328        C  0.95847909  0.89255280  0.09744686    -0.25600
C329        C  0.95666249  0.91898017  0.07747077     0.36400
C330        C  0.98984365  0.91539466  0.05552584    -0.19600
C331        C  0.02339147  0.88522454  0.05380352    -0.24900
C332        C  0.02525093  0.85891435  0.07383183     0.27800
H333        H  0.93403601  0.89551017  0.11463726     0.13500
N334        N  0.92280902  0.95008812  0.07987773    -0.82200
H335        H  0.04871022  0.88248152  0.03692288     0.18400
N336        N  0.06048223  0.82851246  0.07212853    -0.80800
H337        H  0.90101067  0.94849236  0.09715357     0.34000
H338        H  0.94605826  0.97345073  0.08148961     0.38500
H339        H  0.08128810  0.82937040  0.05451610     0.34000
H340        H  0.08761068  0.83140754  0.08710371     0.30700
H341        H  0.06503247  0.88833652  0.16052823     0.34000
H342        H  0.07671030  0.88570444  0.12827477     0.30700
H343        H  0.98133784  0.72389946  0.13905679     0.38600
H344        H  0.93384516  0.73995081  0.11990940     0.34000
C345        C  0.00651998  0.07697834  0.44254131    -0.19700
C346        C  0.05046816  0.08089837  0.42594702     0.36500
C347        C  0.04840872  0.10516810  0.40456933    -0.25700
C348        C  0.00402965  0.12609972  0.39958462     0.02900
C349        C  0.96114366  0.12354193  0.41667578     0.27800
C350        C  0.96263703  0.09885806  0.43780498    -0.24800
N351        N  0.09635799  0.05940220  0.43013790    -0.82200
H352        H  0.08136895  0.10740503  0.39141323     0.13600
C353        C  0.00255553  0.14976073  0.37591589     0.02900
N354        N  0.91617934  0.14594701  0.41239569    -0.80800
H355        H  0.92909930  0.09656178  0.45056305     0.18400
C356        C  0.96725224  0.14167694  0.35594230    -0.25600
C357        C  0.96594387  0.16257776  0.33281749     0.36400
C358        C  0.00031551  0.19245844  0.32974610    -0.19600
C359        C  0.03578091  0.20034845  0.34969297    -0.24900
C360        C  0.03697320  0.17949185  0.37283712     0.27800
H361        H  0.94128542  0.11853606  0.35825174     0.13500
N362        N  0.93076856  0.15307307  0.31220395    -0.82200
H363        H  0.06193887  0.22334560  0.34733469     0.18400
N364        N  0.07257010  0.18856379  0.39336957    -0.80800
H365        H  0.90819703  0.13042513  0.31751393     0.34000
H366        H  0.95299126  0.14511380  0.29601225     0.38500
H367        H  0.09524217  0.21115544  0.38806042     0.34000
H368        H  0.05065117  0.19652608  0.40967074     0.30700
H369        H  0.88792007  0.14080931  0.42668346     0.34000
H370        H  0.92744596  0.17326557  0.41468576     0.30700
H371        H  0.11385052  0.06914034  0.44716583     0.38600
H372        H  0.12330017  0.06364350  0.41506092     0.34000
C373        C  0.00138605  0.07105631  0.06003937    -0.19700
C374        C  0.04457239  0.09377382  0.06530302     0.36500
C375        C  0.04303302  0.11738288  0.08703298    -0.25700
C376        C  0.99948671  0.11862981  0.10354777     0.02900
C377        C  0.95688064  0.09560517  0.09864710     0.27800
C378        C  0.95798190  0.07238016  0.07677924    -0.24800
N379        N  0.08946619  0.09317024  0.04849779    -0.82200
H380        H  0.07574509  0.13511466  0.09106560     0.13600
C381        C  0.99920093  0.14385130  0.12618968     0.02900
N382        N  0.91308657  0.09552287  0.11618283    -0.80800
H383        H  0.92519189  0.05455971  0.07315152     0.18400
C384        C  0.96488213  0.17362405  0.12648345    -0.25600
C385        C  0.96387921  0.19824472  0.14762598     0.36400
C386        C  0.99721246  0.19241326  0.16905025    -0.19600
C387        C  0.03141654  0.16252427  0.16864083    -0.24900
C388        C  0.03271095  0.13815525  0.14743474     0.27800
H389        H  0.93941082  0.17788832  0.10997425     0.13500
N390        N  0.93010026  0.22951337  0.14718176    -0.82200
H391        H  0.05662403  0.15787634  0.18517237     0.18400
N392        N  0.06751496  0.10742836  0.14744763    -0.80800
H393        H  0.90824525  0.22983646  0.13001790     0.34000
H394        H  0.95341600  0.25294544  0.14677645     0.38500
H395        H  0.08978731  0.10725698  0.16446976     0.34000
H396        H  0.04498112  0.08361290  0.14785795     0.30700
H397        H  0.88497389  0.07692833  0.10984904     0.34000
H398        H  0.92593535  0.08607088  0.13433130     0.30700
H399        H  0.07818390  0.10301330  0.03019506     0.38600
H400        H  0.11791256  0.11112999  0.05537682     0.34000
C401        C  0.50024148  0.69768699  0.33085687    -0.19700
C402        C  0.53069738  0.70640624  0.35277930     0.36500
C403        C  0.52880221  0.68358301  0.37491697    -0.25700
C404        C  0.49701746  0.65235179  0.37541434     0.02900
C405        C  0.46657554  0.64367074  0.35346983     0.27800
C406        C  0.46818167  0.66664137  0.33148887    -0.24800
N407        N  0.56273038  0.73860514  0.35254787    -0.82200
H408        H  0.55212825  0.69007681  0.39185991     0.13600
C409        C  0.49778250  0.62784464  0.39848166     0.02900
N410        N  0.43496024  0.61121576  0.35345592    -0.80800
H411        H  0.44522103  0.65995958  0.31446376     0.18400
C412        C  0.45218668  0.62209289  0.41302092    -0.25600
C413        C  0.45108172  0.59741270  0.43417324     0.36400
C414        C  0.49651396  0.57760299  0.44050178    -0.19600
C415        C  0.54230779  0.58432489  0.42621768    -0.24900
C416        C  0.54338768  0.60911612  0.40530425     0.27800
H417        H  0.41740759  0.63698142  0.40780355     0.13500
N418        N  0.40428206  0.59275513  0.44923925    -0.82200
H419        H  0.57739073  0.56950680  0.43094707     0.18400
N420        N  0.59038989  0.61479528  0.39057580    -0.80800
H421        H  0.37446844  0.60897495  0.44171159     0.34000
H422        H  0.41151661  0.60247488  0.46810620     0.38500
H423        H  0.62066088  0.59916175  0.39826472     0.34000
H424        H  0.58410779  0.60521021  0.37159117     0.30700
H425        H  0.41488949  0.60885655  0.33582655     0.34000
H426        H  0.45976978  0.58863062  0.35450105     0.30700
H427        H  0.53822835  0.76131641  0.35113862     0.38600
H428        H  0.58256672  0.74118420  0.37022666     0.34000
C429        C  0.49636148  0.58119794  0.05553311    -0.19700
C430        C  0.45278981  0.58555733  0.07227604     0.36500
C431        C  0.45410451  0.61210283  0.09221670    -0.25700
C432        C  0.49818083  0.63382623  0.09617086     0.02900
C433        C  0.54127208  0.62998897  0.07935480     0.27800
C434        C  0.53991350  0.60381745  0.05921806    -0.24800
N435        N  0.40808489  0.56231913  0.06966974    -0.82200
H436        H  0.42134232  0.61492957  0.10543639     0.13600
C437        C  0.50011916  0.65852035  0.11919068     0.02900
N438        N  0.58641281  0.65250103  0.08300458    -0.80800
H439        H  0.57331761  0.60093683  0.04643701     0.18400
C440        C  0.53601083  0.65115502  0.13898273    -0.25600
C441        C  0.53752327  0.67241556  0.16184791     0.36400
C442        C  0.50313883  0.70227426  0.16472120    -0.19600
C443        C  0.46722161  0.70964250  0.14486028    -0.24900
C444        C  0.46544797  0.68809426  0.12205942     0.27800
H445        H  0.56195431  0.62799516  0.13686513     0.13500
N446        N  0.57244233  0.66293164  0.18256506    -0.82200
H447        H  0.44073635  0.73243402  0.14716181     0.18400
N448        N  0.42876957  0.69609153  0.10179245    -0.80800
H449        H  0.59515591  0.64034690  0.17733808     0.34000
H450        H  0.54996376  0.65485545  0.19864662     0.38500
H451        H  0.40593502  0.71863919  0.10696171     0.34000
H452        H  0.44979452  0.70367456  0.08510010     0.30700
H453        H  0.61493653  0.64617288  0.06911173     0.34000
H454        H  0.57552580  0.67966187  0.07963025     0.30700
H455        H  0.41943177  0.53569611  0.07455850     0.38600
H456        H  0.37926936  0.56969203  0.08312984     0.34000
C457        C  0.51079427  0.41772761  0.44364148    -0.19700
C458        C  0.54606546  0.41923937  0.42238229     0.36500
C459        C  0.54481857  0.39167054  0.40314175    -0.25700
C460        C  0.50900939  0.36285104  0.40469462     0.02900
C461        C  0.47471126  0.36073223  0.42617530     0.27800
C462        C  0.47582948  0.38827232  0.44541095    -0.24800
N463        N  0.58160856  0.44940370  0.41985825    -0.82200
H464        H  0.57072229  0.39322870  0.38640444     0.13600
C465        C  0.50451386  0.33713288  0.38243068     0.02900
N466        N  0.43884033  0.33069503  0.42828283    -0.80800
H467        H  0.44908149  0.38687488  0.46180907     0.18400
C468        C  0.53359142  0.30467168  0.38201374    -0.25600
C469        C  0.53076123  0.28047887  0.36057551     0.36400
C470        C  0.49833631  0.28911965  0.33931999    -0.19600
C471        C  0.46867947  0.32132342  0.34010557    -0.24900
C472        C  0.47160176  0.34548714  0.36137460     0.27800
H473        H  0.55867632  0.29840076  0.39833883     0.13500
N474        N  0.56045488  0.24721950  0.36024613    -0.82200
H475        H  0.44438339  0.32818408  0.32360612     0.18400
N476        N  0.44247128  0.37905361  0.36138017    -0.80800
H477        H  0.58228225  0.24485637  0.37733296     0.34000
H478        H  0.53427365  0.22534301  0.36024486     0.38500
H479        H  0.42104105  0.38149450  0.34415269     0.34000
H480        H  0.41556812  0.37775365  0.37670303     0.30700
H481        H  0.41681394  0.33289074  0.44545011     0.34000
H482        H  0.41280277  0.33258927  0.41275837     0.30700
H483        H  0.55967519  0.47314381  0.41696878     0.38600
H484        H  0.60489500  0.44628073  0.40320878     0.34000
C485        C  0.51099891  0.42552275  0.05961739    -0.19700
C486        C  0.55348988  0.42398236  0.07705718     0.36500
C487        C  0.55076345  0.40076405  0.09897119    -0.25700
C488        C  0.50686295  0.37911314  0.10376540     0.02900
C489        C  0.46496718  0.38011858  0.08629811     0.27800
C490        C  0.46743182  0.40328561  0.06444609    -0.24800
N491        N  0.59826406  0.44688825  0.07319608    -0.82200
H492        H  0.58267639  0.39991825  0.11266093     0.13600
C493        C  0.50457961  0.35628809  0.12763585     0.02900
N494        N  0.41994277  0.35776585  0.09098042    -0.80800
H495        H  0.43484830  0.40411058  0.05118109     0.18400
C496        C  0.46802726  0.36469917  0.14711158    -0.25600
C497        C  0.46537991  0.34432597  0.17037563     0.36400
C498        C  0.49966841  0.31464557  0.17403079    -0.19600
C499        C  0.53611244  0.30622338  0.15438374    -0.24900
C500        C  0.53874280  0.32666921  0.13114365     0.27800
H501        H  0.44210278  0.38768865  0.14428696     0.13500
N502        N  0.42894457  0.35421846  0.19053571    -0.82200
H503        H  0.56204751  0.28323752  0.15705133     0.18400
N504        N  0.57553241  0.31735772  0.11098214    -0.80800
H505        H  0.40649863  0.37659134  0.18471850     0.34000
H506        H  0.45015700  0.36271626  0.20680747     0.38500
H507        H  0.59791236  0.29487471  0.11664026     0.34000
H508        H  0.55458378  0.30914654  0.09454229     0.30700
H509        H  0.39228191  0.36192860  0.07640668     0.34000
H510        H  0.43146473  0.33038998  0.08960882     0.30700
H511        H  0.61833725  0.43685514  0.05688583     0.38600
H512        H  0.62369776  0.44451872  0.08896102     0.34000
O513        O  0.54185224  0.53961238  0.97055997    -0.72800
O514        O  0.55073391  0.46497148  0.52764520    -0.73800
O515        O  0.55023784  0.46216662  0.97177098    -0.62400
O516        O  0.54237448  0.54209947  0.52587876    -0.70800
O517        O  0.45671143  0.53811292  0.52617443    -0.70300
O518        O  0.46451845  0.45739896  0.97265723    -0.61600
O519        O  0.46507799  0.46091963  0.52812222    -0.74100
O520        O  0.45619024  0.53541665  0.97056759    -0.72900
Cu521      Cu  0.54923902  0.50233319  0.49889193     1.04600
Cu522      Cu  0.45763501  0.49776613  0.99934578     1.04300
C523        C  0.49795359  0.54968118  0.96162133     0.93400
C524        C  0.50910498  0.45157337  0.53733534     0.92600
C525        C  0.50853144  0.44712759  0.96365867     0.84700
C526        C  0.49839923  0.55254567  0.53482251     0.91000
O527        O  0.03646042  0.95412309  0.52621808    -0.72800
O528        O  0.04543265  0.03510937  0.97310000    -0.73800
O529        O  0.04306210  0.03164124  0.52889582    -0.62400
O530        O  0.03939063  0.95808567  0.97085471    -0.70800
O531        O  0.95338084  0.95993688  0.97083586    -0.70300
O532        O  0.95733113  0.03549846  0.52791014    -0.61600
O533        O  0.95976283  0.03781011  0.97207255    -0.74100
O534        O  0.95061742  0.95843258  0.52654431    -0.72900
Cu535      Cu  0.04402823  0.99463849  0.49981547     1.04600
Cu536      Cu  0.95225876  0.99808256  0.49929373     1.04300
C537        C  0.99228203  0.94387669  0.53503065     0.93400
C538        C  0.00395933  0.04883049  0.96369617     0.92600
C539        C  0.00073427  0.04506663  0.53775635     0.84700
C540        C  0.99602929  0.94737638  0.96166974     0.91000
C541        C  0.94407254  0.26622031  0.74937981     0.30200
C542        C  0.05081383  0.26829976  0.74882361     0.30200
C543        C  0.96889381  0.30495003  0.75020676    -0.06000
C544        C  0.97148836  0.24754552  0.77263132    -0.06800
C545        C  0.97089219  0.24914759  0.72547571    -0.06700
C546        C  0.02314918  0.30559949  0.74976662    -0.06000
C547        C  0.02547748  0.24727739  0.77181276    -0.06800
C548        C  0.02481044  0.24944037  0.72525995    -0.06700
C549        C  0.03866956  0.34161915  0.75153020    -0.32100
N550        N  0.99582041  0.36301472  0.75351430     0.14400
C551        C  0.95320721  0.34108006  0.75297666    -0.32100
H552        H  0.91403752  0.35099076  0.75556518     0.16400
C553        C  0.04172752  0.22588151  0.79254040    -0.31100
N554        N  0.99955903  0.21495382  0.80654868     0.13100
C555        C  0.95669250  0.22888769  0.79496542    -0.31000
C556        C  0.03996261  0.22794725  0.70433006    -0.31300
N557        N  0.99718369  0.21672905  0.69121174     0.13700
H558        H  0.07902869  0.21959562  0.69942017     0.16300
C559        C  0.95472684  0.22948995  0.70403095    -0.31300
H560        H  0.91501231  0.22304991  0.69906275     0.16300
H561        H  0.91748705  0.22529690  0.80217886     0.16300
H562        H  0.07823311  0.35153423  0.75167966     0.16400
H563        H  0.08123769  0.21819055  0.79693597     0.16300
C564        C  0.05481510  0.73325411  0.74835482     0.30200
C565        C  0.94814589  0.73222118  0.74731887     0.30200
C566        C  0.02916534  0.69548325  0.75365494    -0.06000
C567        C  0.02683219  0.75694553  0.76896574    -0.06800
C568        C  0.02925207  0.74519491  0.72271280    -0.06700
C569        C  0.97469143  0.69476254  0.75269439    -0.06000
C570        C  0.97306706  0.75687373  0.76790631    -0.06800
C571        C  0.97550877  0.74365908  0.72182510    -0.06700
C572        C  0.96019863  0.65837582  0.75489322    -0.32100
N573        N  0.00320124  0.63751491  0.75840974     0.14400
C574        C  0.04532132  0.65998173  0.75819792    -0.32100
H575        H  0.08492587  0.65093860  0.76062248     0.16400
C576        C  0.95474507  0.77563910  0.78937466    -0.31100
N577        N  0.99589161  0.78642354  0.80375000     0.13100
C578        C  0.03979971  0.77396294  0.79216016    -0.31000
C579        C  0.96102962  0.75624683  0.69752403    -0.31300
N580        N  0.00414166  0.76733674  0.68441444     0.13700
H581        H  0.92182437  0.75956410  0.69051556     0.16300
C582        C  0.04606047  0.76068718  0.69961277    -0.31300
H583        H  0.08555236  0.76821890  0.69471873     0.16300
H584        H  0.07806238  0.77645172  0.80054409     0.16300
H585        H  0.92170172  0.64720309  0.75249192     0.16400
H586        H  0.91452880  0.77975830  0.79479758     0.16300
C587        C  0.55489863  0.76819549  0.74904070     0.30200
C588        C  0.44812763  0.76767344  0.74849701     0.30200
C589        C  0.52834481  0.80652999  0.75036328    -0.06000
C590        C  0.52916844  0.75209723  0.72448637    -0.06800
C591        C  0.52796013  0.74800300  0.77162334    -0.06700
C592        C  0.47377021  0.80604091  0.75064576    -0.06000
C593        C  0.47543985  0.75114525  0.72461114    -0.06800
C594        C  0.47415479  0.74788745  0.77159107    -0.06700
C595        C  0.45747253  0.84195982  0.75298784    -0.32100
N596        N  0.49952484  0.86441898  0.75233956     0.14400
C597        C  0.54272622  0.84313131  0.75065732    -0.32100
H598        H  0.58158500  0.85395003  0.74937809     0.16400
C599        C  0.45998054  0.73359220  0.70211702    -0.31100
N600        N  0.50287588  0.72418218  0.68816544     0.13100
C601        C  0.54520438  0.73637084  0.70126577    -0.31000
C602        C  0.45861298  0.73117745  0.79455817    -0.31300
N603        N  0.50118663  0.72002386  0.80774171     0.13700
H604        H  0.41931445  0.72768407  0.80164306     0.16300
C605        C  0.54390281  0.73060350  0.79412592    -0.31300
H606        H  0.58354106  0.72549307  0.79993292     0.16300
H607        H  0.58487469  0.73314807  0.69465590     0.16300
H608        H  0.41779941  0.85128078  0.75467102     0.16400
H609        H  0.42052283  0.72701872  0.69673414     0.16300
C610        C  0.44295295  0.23607731  0.75163290     0.30200
C611        C  0.54943489  0.23428367  0.75136866     0.30200
C612        C  0.46747617  0.19794637  0.74658374    -0.06000
C613        C  0.47032273  0.26011185  0.73136986    -0.06800
C614        C  0.46970569  0.24686412  0.77745299    -0.06700
C615        C  0.52222552  0.19694086  0.74621089    -0.06000
C616        C  0.52376312  0.25923516  0.73125516    -0.06800
C617        C  0.52364887  0.24573526  0.77736009    -0.06700
C618        C  0.53590409  0.16070344  0.75047942    -0.32100
N619        N  0.49246794  0.13974306  0.75208002     0.14400
C620        C  0.45097641  0.16254128  0.75148172    -0.32100
H621        H  0.41168807  0.15422473  0.75604516     0.16400
C622        C  0.54047643  0.27973586  0.71023750    -0.31100
N623        N  0.49835549  0.29317775  0.69766070     0.13100
C624        C  0.45519897  0.28095536  0.71031034    -0.31000
C625        C  0.53984083  0.25764914  0.80159325    -0.31300
N626        N  0.49750756  0.26694637  0.81603383     0.13700
H627        H  0.57953690  0.26158141  0.80769750     0.16300
C628        C  0.45456801  0.25968055  0.80169771    -0.31300
H629        H  0.41529762  0.26503558  0.80818891     0.16300
H630        H  0.41573202  0.28537551  0.70397519     0.16300
H631        H  0.57460002  0.15036588  0.75363079     0.16400
H632        H  0.58034901  0.28389134  0.70419461     0.16300
C633        C  0.49816239  0.90410990  0.75322405    -0.19700
C634        C  0.53108405  0.92565768  0.73715055     0.36500
C635        C  0.52925363  0.96415019  0.73893204    -0.25700
C636        C  0.49427532  0.98172512  0.75583598     0.02900
C637        C  0.46058837  0.96048296  0.77147029     0.27800
C638        C  0.46292919  0.92193584  0.77005970    -0.24800
N639        N  0.56509763  0.90847956  0.71849074    -0.82200
H640        H  0.55449737  0.98064834  0.72666483     0.13600
C641        C  0.49255117  0.02246841  0.75632548     0.02900
N642        N  0.42409027  0.97819214  0.78863645    -0.80800
H643        H  0.43752316  0.90565712  0.78235895     0.18400
C644        C  0.45417630  0.04078932  0.74213189    -0.25600
C645        C  0.45340912  0.07931276  0.74052627     0.36400
C646        C  0.49090273  0.10015158  0.75419438    -0.19600
C647        C  0.52892002  0.08156115  0.76869217    -0.24900
C648        C  0.53027658  0.04298745  0.76974940     0.27800
H649        H  0.42572331  0.02484602  0.73154599     0.13500
N650        N  0.41597852  0.09721150  0.72420165    -0.82200
H651        H  0.55777139  0.09719446  0.77918600     0.18400
N652        N  0.57020325  0.02448074  0.78410192    -0.80800
H653        H  0.39131047  0.07806019  0.71552502     0.34000
H654        H  0.43622472  0.11003379  0.70896190     0.38500
H655        H  0.59537821  0.04342492  0.79264649     0.34000
H656        H  0.55233172  0.01025916  0.79944716     0.30700
H657        H  0.40179531  0.95875204  0.79866945     0.34000
H658        H  0.44523782  0.99243540  0.80275199     0.30700
H659        H  0.54194657  0.89500244  0.70479520     0.38600
H660        H  0.58651633  0.92811415  0.70817484     0.34000
C661        C  0.61407313  0.76320321  0.75039261    -0.19700
C662        C  0.63732287  0.72866481  0.74465721     0.36500
C663        C  0.69140802  0.72499761  0.74513808    -0.25700
C664        C  0.72325194  0.75348620  0.75370625     0.02900
C665        C  0.70025862  0.78638936  0.76237002     0.27800
C666        C  0.64615439  0.79080925  0.76066680    -0.24800
N667        N  0.60625541  0.69699961  0.73875519    -0.82200
H668        H  0.70889663  0.69936856  0.73908879     0.13600
C669        C  0.78046898  0.74817390  0.75331546     0.02900
N670        N  0.73179168  0.81484680  0.77347448    -0.80800
H671        H  0.62932986  0.81503994  0.76902776     0.18400
C672        C  0.81196657  0.77454294  0.74135147    -0.25600
C673        C  0.86579680  0.77014468  0.73996645     0.36400
C674        C  0.88903759  0.73673835  0.74804470    -0.19600
C675        C  0.85756870  0.71158955  0.76169810    -0.24900
C676        C  0.80384826  0.71708409  0.76463654     0.27800
H677        H  0.79485279  0.79927399  0.73349941     0.13500
N678        N  0.89681650  0.80083197  0.73202605    -0.82200
H679        H  0.87482547  0.68895397  0.77189202     0.18400
N680        N  0.77322239  0.69189054  0.77987097    -0.80800
H681        H  0.88413952  0.80958506  0.71367059     0.34000
H682        H  0.89011082  0.82218273  0.74524945     0.38500
H683        H  0.79619581  0.67058592  0.78701983     0.34000
H684        H  0.75912150  0.70611108  0.79617841     0.30700
H685        H  0.70907401  0.83733472  0.77887939     0.34000
H686        H  0.74808340  0.80454572  0.79065057     0.30700
H687        H  0.58659826  0.68919995  0.75576232     0.38600
H688        H  0.62952212  0.67470241  0.73355756     0.34000
C689        C  0.11418450  0.73696061  0.74675060    -0.19700
C690        C  0.14562965  0.71179210  0.73265996     0.36500
C691        C  0.19974669  0.71711244  0.73149730    -0.25700
C692        C  0.22303323  0.74800407  0.74277417     0.02900
C693        C  0.19160995  0.77487005  0.75443294     0.27800
C694        C  0.13779647  0.76972760  0.75532099    -0.24800
N695        N  0.12276024  0.68166012  0.71880279    -0.82200
H696        H  0.22395433  0.69733873  0.72140988     0.13600
C697        C  0.28034885  0.75190549  0.74262381     0.02900
N698        N  0.21452213  0.80730287  0.76541722    -0.80800
H699        H  0.11448632  0.79237411  0.76201258     0.18400
C700        C  0.30373493  0.78214080  0.73037487    -0.25600
C701        C  0.35782583  0.78757485  0.73128501     0.36400
C702        C  0.38890863  0.76366730  0.74646283    -0.19600
C703        C  0.36547284  0.73105936  0.75556708    -0.24900
C704        C  0.31172391  0.72565473  0.75483771     0.27800
H705        H  0.27967360  0.80118648  0.71964621     0.13500
N706        N  0.38106765  0.81609473  0.71580850    -0.82200
H707        H  0.38901227  0.70888453  0.76276180     0.18400
N708        N  0.28885941  0.69363960  0.76658584    -0.80800
H709        H  0.35276241  0.83114472  0.70596847     0.34000
H710        H  0.40402183  0.80367665  0.70142561     0.38500
H711        H  0.31739684  0.67688117  0.77472095     0.34000
H712        H  0.26538528  0.70238382  0.78211600     0.30700
H713        H  0.18596448  0.82454645  0.77320684     0.34000
H714        H  0.23763109  0.79916676  0.78110062     0.30700
H715        H  0.10036530  0.69239817  0.70366775     0.38600
H716        H  0.15131870  0.66551447  0.70993546     0.34000
C717        C  0.60859311  0.23822347  0.75003579    -0.19900
C718        C  0.63265453  0.27172401  0.75716350     0.36500
C719        C  0.68661538  0.27540893  0.75575421    -0.25700
C720        C  0.71779898  0.24767005  0.74520572     0.02900
C721        C  0.69372322  0.21558711  0.73557835     0.27800
C722        C  0.63968945  0.21121119  0.73820678    -0.24800
N723        N  0.60231954  0.30289864  0.76473085    -0.82200
H724        H  0.70411739  0.30045735  0.76284927     0.13600
C725        C  0.77534642  0.25249263  0.74482467     0.02900
N726        N  0.72397935  0.18794810  0.72252370    -0.80800
H727        H  0.62200275  0.18753914  0.72941577     0.18400
C728        C  0.80681253  0.22378888  0.75345131    -0.25600
C729        C  0.86101363  0.22678400  0.75349516     0.36400
C730        C  0.88486760  0.26124786  0.74821009    -0.19600
C731        C  0.85332809  0.28919132  0.73799802    -0.24900
C732        C  0.79916785  0.28518428  0.73608922     0.27800
H733        H  0.78903584  0.19840105  0.75980118     0.13500
N734        N  0.89141395  0.19447799  0.75831829    -0.82200
H735        H  0.87081673  0.31353048  0.72995998     0.18400
N736        N  0.76849909  0.31389037  0.72473335    -0.80800
H737        H  0.86774454  0.17208928  0.76287666     0.34000
H738        H  0.91091971  0.18757778  0.74108419     0.38500
H739        H  0.79178184  0.33615133  0.71939472     0.34000
H740        H  0.75236025  0.30365980  0.70749864     0.30700
H741        H  0.70059339  0.16604166  0.71672171     0.34000
H742        H  0.73924492  0.19959448  0.70545125     0.30700
H743        H  0.60955100  0.32389160  0.75128021     0.38600
H744        H  0.61511722  0.31188526  0.78300930     0.34000
C745        C  0.11031396  0.27111873  0.74873266    -0.19700
C746        C  0.13897365  0.27668023  0.77200815     0.36500
C747        C  0.19322174  0.27279883  0.77148789    -0.25700
C748        C  0.22004036  0.26697836  0.74791549     0.02900
C749        C  0.19241948  0.26803059  0.72424290     0.27800
C750        C  0.13808863  0.27072641  0.72490863    -0.24800
N751        N  0.11329468  0.28654478  0.79602414    -0.82200
H752        H  0.21465921  0.27400991  0.78962804     0.13600
C753        C  0.27679018  0.25966011  0.74831997     0.02900
N754        N  0.21968848  0.26645150  0.69964662    -0.80800
H755        H  0.11773840  0.27324357  0.70661871     0.18400
C756        C  0.29630779  0.22829804  0.73584141    -0.25600
C757        C  0.34965120  0.22010923  0.73583250     0.36400
C758        C  0.38404404  0.24209071  0.75067048    -0.19600
C759        C  0.36442903  0.27502954  0.76127546    -0.24900
C760        C  0.31149424  0.28374023  0.76066550     0.27800
H761        H  0.26978153  0.21047586  0.72551457     0.13500
N762        N  0.36876875  0.19117348  0.71940640    -0.82200
H763        H  0.39084743  0.29484442  0.76955469     0.18400
N764        N  0.29303631  0.31728238  0.77213473    -0.80800
H765        H  0.33835661  0.17784059  0.70989078     0.34000
H766        H  0.39174775  0.20314344  0.70480697     0.38500
H767        H  0.32350454  0.33182132  0.78068077     0.34000
H768        H  0.27872409  0.33363568  0.75702731     0.30700
H769        H  0.19370004  0.26725944  0.68403850     0.34000
H770        H  0.24265712  0.28998351  0.69820257     0.30700
H771        H  0.09693429  0.31241655  0.79348662     0.38600
H772        H  0.13998374  0.28900140  0.81126511     0.34000
C773        C  0.00350933  0.59793146  0.75977015    -0.19700
C774        C  0.03809471  0.57700276  0.74429838     0.36500
C775        C  0.03529620  0.53849529  0.74492724    -0.25700
C776        C  0.99853377  0.52037212  0.76054150     0.02900
C777        C  0.96437618  0.54105172  0.77630609     0.27800
C778        C  0.96704532  0.57964274  0.77567123    -0.24800
N779        N  0.07481871  0.59491460  0.72736068    -0.82200
H780        H  0.06131455  0.52243903  0.73279937     0.13600
C781        C  0.99551205  0.47972043  0.75940258     0.02900
N782        N  0.92731581  0.52277282  0.79288529    -0.80800
H783        H  0.94054615  0.59563634  0.78756180     0.18400
C784        C  0.02346496  0.45861749  0.77739896    -0.25600
C785        C  0.02381394  0.42006610  0.77583075     0.36400
C786        C  0.99545805  0.40236357  0.75597251    -0.19600
C787        C  0.96680965  0.42349634  0.73825928    -0.24900
C788        C  0.96690486  0.46203819  0.73963823     0.27800
H789        H  0.04547619  0.47232129  0.79250657     0.13500
N790        N  0.05254530  0.39871738  0.79436829    -0.82200
H791        H  0.94523732  0.40978355  0.72300303     0.18400
N792        N  0.93902740  0.48337489  0.72073862    -0.80800
H793        H  0.07117228  0.41577329  0.80779984     0.34000
H794        H  0.02595521  0.38296620  0.80502478     0.38500
H795        H  0.92074122  0.46629801  0.70722524     0.34000
H796        H  0.90961352  0.49742944  0.73068976     0.30700
H797        H  0.90546197  0.54188798  0.80346798     0.34000
H798        H  0.90136709  0.50879064  0.78085239     0.30700
H799        H  0.05386048  0.60920875  0.71320345     0.38600
H800        H  0.09747031  0.57568337  0.71736082     0.34000
C801        C  0.99587426  0.92120285  0.93967886    -0.19700
C802        C  0.95805326  0.89339226  0.93750235     0.36500
C803        C  0.95892199  0.87014941  0.91558550    -0.25700
C804        C  0.99686830  0.87423049  0.89609313     0.02900
C805        C  0.03508970  0.90151363  0.89841069     0.27800
C806        C  0.03435340  0.92466781  0.92028256    -0.24800
N807        N  0.91948228  0.88858189  0.95762629    -0.82200
H808        H  0.92987537  0.84888616  0.91357824     0.13600
C809        C  0.99529419  0.85050608  0.87283380     0.02900
N810        N  0.07373121  0.90601996  0.87826454    -0.80800
H811        H  0.06330204  0.94606109  0.92192897     0.18400
C812        C  0.96904130  0.86283915  0.85061366    -0.25600
C813        C  0.96813222  0.84168509  0.82772208     0.36400
C814        C  0.99382157  0.80764932  0.82727732    -0.19600
C815        C  0.01984739  0.79525853  0.84958614    -0.24900
C816        C  0.02071002  0.81640384  0.87250494     0.27800
H817        H  0.94989961  0.88924461  0.85108450     0.13500
N818        N  0.94246893  0.85491210  0.80470108    -0.82200
H819        H  0.03952194  0.76907433  0.84898311     0.18400
N820        N  0.04702562  0.80345901  0.89542466    -0.80800
H821        H  0.92560518  0.88047878  0.80824979     0.34000
H822        H  0.97073539  0.85889392  0.79023039     0.38500
H823        H  0.06307860  0.77761342  0.89201020     0.34000
H824        H  0.07805702  0.82116277  0.89901522     0.30700
H825        H  0.09847179  0.92780172  0.88274007     0.34000
H826        H  0.09664786  0.88242718  0.87799601     0.30700
H827        H  0.93870274  0.88094975  0.97473145     0.38600
H828        H  0.89459258  0.86695921  0.95294297     0.34000
C829        C  0.00387082  0.78986072  0.66139790    -0.19700
C830        C  0.97688171  0.77900838  0.63879217     0.36500
C831        C  0.97416947  0.80304607  0.61733270    -0.25700
C832        C  0.99723828  0.83778620  0.61842890     0.02900
C833        C  0.02428281  0.84860860  0.64100496     0.27800
C834        C  0.02773136  0.82435799  0.66220768    -0.24800
N835        N  0.95225061  0.74374408  0.63788324    -0.82200
H836        H  0.95351703  0.79496393  0.59985864     0.13600
C837        C  0.99288719  0.86294035  0.59591036     0.02900
N838        N  0.04728728  0.88442574  0.64240883    -0.80800
H839        H  0.04767459  0.83274224  0.67981083     0.18400
C840        C  0.95847675  0.89255181  0.59744668    -0.25600
C841        C  0.95665946  0.91897910  0.57747053     0.36400
C842        C  0.98984168  0.91539435  0.55552588    -0.19600
C843        C  0.02339096  0.88522496  0.55380391    -0.24900
C844        C  0.02525120  0.85891503  0.57383238     0.27800
H845        H  0.93403284  0.89550856  0.61463691     0.13500
N846        N  0.92280452  0.95008627  0.57987714    -0.82200
H847        H  0.04871034  0.88248244  0.53692355     0.18400
N848        N  0.06048421  0.82851404  0.57212947    -0.80800
H849        H  0.90100533  0.94848993  0.59715304     0.34000
H850        H  0.94605237  0.97344929  0.58148928     0.38500
H851        H  0.08129041  0.82937227  0.55451739     0.34000
H852        H  0.08761222  0.83141004  0.58710499     0.30700
H853        H  0.06503899  0.88833500  0.66052668     0.34000
H854        H  0.07671361  0.88570243  0.62827305     0.30700
H855        H  0.98133443  0.72389979  0.63905784     0.38600
H856        H  0.93384056  0.73995244  0.61991179     0.34000
C857        C  0.00651918  0.07697803  0.94254100    -0.19700
C858        C  0.05046722  0.08089814  0.92594661     0.36500
C859        C  0.04840742  0.10516774  0.90456889    -0.25700
C860        C  0.00402819  0.12609916  0.89958425     0.02900
C861        C  0.96114228  0.12354124  0.91667543     0.27800
C862        C  0.96263597  0.09885748  0.93780468    -0.24800
N863        N  0.09635719  0.05940214  0.93013747    -0.82200
H864        H  0.08136754  0.10740480  0.89141275     0.13600
C865        C  0.00255412  0.14976039  0.87591567     0.02900
N866        N  0.91617774  0.14594609  0.91239537    -0.80800
H867        H  0.92909832  0.09656113  0.95056281     0.18400
C868        C  0.96725121  0.14167666  0.85594191    -0.25600
C869        C  0.96594313  0.16257763  0.83281718     0.36400
C870        C  0.00031475  0.19245839  0.82974602    -0.19600
C871        C  0.03577980  0.20034831  0.84969308    -0.24900
C872        C  0.03697183  0.17949156  0.87283715     0.27800
H873        H  0.94128450  0.11853563  0.85825115     0.13500
N874        N  0.93076823  0.15307302  0.81220345    -0.82200
H875        H  0.06193779  0.22334542  0.84733497     0.18400
N876        N  0.07256872  0.18856312  0.89336968    -0.80800
H877        H  0.90819664  0.13042490  0.81751330     0.34000
H878        H  0.95299113  0.14511388  0.79601184     0.38500
H879        H  0.09524124  0.21115505  0.88806057     0.34000
H880        H  0.05065010  0.19652522  0.90967081     0.30700
H881        H  0.88791867  0.14080830  0.92668312     0.34000
H882        H  0.92744416  0.17326481  0.91468541     0.30700
H883        H  0.11384964  0.06914026  0.94716507     0.38600
H884        H  0.12329952  0.06364347  0.91506016     0.34000
C885        C  0.00138505  0.07105654  0.56003956    -0.19700
C886        C  0.04457185  0.09377355  0.56530327     0.36500
C887        C  0.04303279  0.11738291  0.58703312    -0.25700
C888        C  0.99948625  0.11863058  0.60354772     0.02900
C889        C  0.95687970  0.09560642  0.59864696     0.27800
C890        C  0.95798064  0.07238115  0.57677922    -0.24800
N891        N  0.08946606  0.09316917  0.54849833    -0.82200
H892        H  0.07574531  0.13511434  0.59106579     0.13600
C893        C  0.99920072  0.14385227  0.62618956     0.02900
N894        N  0.91308526  0.09552486  0.61618250    -0.80800
H895        H  0.92519022  0.05456115  0.57315143     0.18400
C896        C  0.96488261  0.17362543  0.62648314    -0.25600
C897        C  0.96387985  0.19824608  0.64762571     0.36400
C898        C  0.99721242  0.19241426  0.66905015    -0.19600
C899        C  0.03141596  0.16252496  0.66864086    -0.24900
C900        C  0.03271023  0.13815596  0.64743477     0.27800
H901        H  0.93941176  0.17788996  0.60997383     0.13500
N902        N  0.93010153  0.22951507  0.64718128    -0.82200
H903        H  0.05662305  0.15787677  0.68517249     0.18400
N904        N  0.06751349  0.10742867  0.64744783    -0.80800
H905        H  0.90824730  0.22983847  0.63001748     0.34000
H906        H  0.95341805  0.25294702  0.64677618     0.38500
H907        H  0.08978566  0.10725712  0.66447015     0.34000
H908        H  0.04497923  0.08361370  0.64785814     0.30700
H909        H  0.88497243  0.07693089  0.60984873     0.34000
H910        H  0.92593356  0.08607289  0.63433107     0.30700
H911        H  0.07818403  0.10301239  0.53019510     0.38600
H912        H  0.11791220  0.11112806  0.55537719     0.34000
C913        C  0.50024125  0.69768714  0.83085726    -0.19700
C914        C  0.53069726  0.70640661  0.85277961     0.36500
C915        C  0.52880251  0.68358347  0.87491729    -0.25700
C916        C  0.49701792  0.65235219  0.87541480     0.02900
C917        C  0.46657572  0.64367097  0.85347042     0.27800
C918        C  0.46818155  0.66664147  0.83148939    -0.24800
N919        N  0.56273012  0.73860562  0.85254797    -0.82200
H920        H  0.55212877  0.69007732  0.89186017     0.13600
C921        C  0.49778321  0.62784524  0.89848220     0.02900
N922        N  0.43496051  0.61121594  0.85345672    -0.80800
H923        H  0.44522083  0.65995954  0.81446433     0.18400
C924        C  0.45218748  0.62209366  0.91302160    -0.25600
C925        C  0.45108257  0.59741332  0.93417383     0.36400
C926        C  0.49651464  0.57760334  0.94050212    -0.19600
C927        C  0.54230842  0.58432512  0.92621795    -0.24900
C928        C  0.54338838  0.60911651  0.90530462     0.27800
H929        H  0.41740843  0.63698223  0.90780434     0.13500
N930        N  0.40428284  0.59275574  0.94923987    -0.82200
H931        H  0.57739126  0.56950677  0.93094714     0.18400
N932        N  0.59039043  0.61479550  0.89057601    -0.80800
H933        H  0.37446963  0.60897548  0.94171246     0.34000
H934        H  0.41151757  0.60247517  0.96810696     0.38500
H935        H  0.62066168  0.59916154  0.89826490     0.34000
H936        H  0.58410819  0.60521065  0.87159156     0.30700
H937        H  0.41488931  0.60885665  0.83582742     0.34000
H938        H  0.45977013  0.58863086  0.85450174     0.30700
H939        H  0.53822852  0.76131655  0.85113875     0.38600
H940        H  0.58256693  0.74118471  0.87022683     0.34000
C941        C  0.49636103  0.58119831  0.55553305    -0.19700
C942        C  0.45278969  0.58555719  0.57227627     0.36500
C943        C  0.45410461  0.61210226  0.59221716    -0.25700
C944        C  0.49818087  0.63382573  0.59617126     0.02900
C945        C  0.54127180  0.62998898  0.57935494     0.27800
C946        C  0.53991294  0.60381796  0.55921793    -0.24800
N947        N  0.40808484  0.56231896  0.56966995    -0.82200
H948        H  0.42134267  0.61492869  0.60543702     0.13600
C949        C  0.50011931  0.65851957  0.61919113     0.02900
N950        N  0.58641229  0.65250129  0.58300471    -0.80800
H951        H  0.57331675  0.60093779  0.54643661     0.18400
C952        C  0.53601053  0.65115377  0.63898329    -0.25600
C953        C  0.53752298  0.67241423  0.66184851     0.36400
C954        C  0.50313900  0.70227323  0.66472166    -0.19600
C955        C  0.46722230  0.70964194  0.64486060    -0.24900
C956        C  0.46544871  0.68809384  0.62205970     0.27800
H957        H  0.56195360  0.62799363  0.63686574     0.13500
N958        N  0.57244151  0.66292989  0.68256578    -0.82200
H959        H  0.44073742  0.73243372  0.64716207     0.18400
N960        N  0.42877099  0.69609154  0.60179251    -0.80800
H961        H  0.59515448  0.64034526  0.67733898     0.34000
H962        H  0.54996201  0.65485373  0.69864748     0.38500
H963        H  0.40593668  0.71863932  0.60696168     0.34000
H964        H  0.44979655  0.70367447  0.58510031     0.30700
H965        H  0.61493617  0.64617336  0.56911149     0.34000
H966        H  0.57552510  0.67966165  0.57963065     0.30700
H967        H  0.41943193  0.53569580  0.57455840     0.38600
H968        H  0.37926944  0.56969155  0.58313037     0.34000
C969        C  0.51079387  0.41772721  0.94364131    -0.19700
C970        C  0.54606515  0.41923858  0.92238216     0.36500
C971        C  0.54481835  0.39166941  0.90314188    -0.25700
C972        C  0.50900903  0.36285000  0.90469491     0.02900
C973        C  0.47471079  0.36073157  0.92617554     0.27800
C974        C  0.47582891  0.38827200  0.94541095    -0.24800
N975        N  0.58160843  0.44940279  0.91985794    -0.82200
H976        H  0.57072220  0.39322722  0.88640462     0.13600
C977        C  0.50451342  0.33713170  0.88243108     0.02900
N978        N  0.43883987  0.33069440  0.92828329    -0.80800
H979        H  0.44908086  0.38687489  0.96180901     0.18400
C980        C  0.53359139  0.30467067  0.88201409    -0.25600
C981        C  0.53076130  0.28047778  0.86057592     0.36400
C982        C  0.49833631  0.28911840  0.83932040    -0.19600
C983        C  0.46867925  0.32132208  0.84010596    -0.24900
C984        C  0.47160121  0.34548579  0.86137498     0.27800
H985        H  0.55867650  0.29839997  0.89833916     0.13500
N986        N  0.56045510  0.24721848  0.86024658    -0.82200
H987        H  0.44438328  0.32818269  0.82360650     0.18400
N988        N  0.44247053  0.37905215  0.86138054    -0.80800
H989        H  0.58228251  0.24485547  0.87733344     0.34000
H990        H  0.53427397  0.22534191  0.86024536     0.38500
H991        H  0.42103993  0.38149292  0.84415279     0.34000
H992        H  0.41556754  0.37775220  0.87670325     0.30700
H993        H  0.41681328  0.33289043  0.94545055     0.34000
H994        H  0.41280246  0.33258831  0.91275877     0.30700
H995        H  0.55967533  0.47314291  0.91696829     0.38600
H996        H  0.60489496  0.44627950  0.90320852     0.34000
C997        C  0.51099842  0.42552336  0.55961784    -0.19700
C998        C  0.55348911  0.42398324  0.57705780     0.36500
C999        C  0.55076276  0.40076473  0.59897172    -0.25700
C1000       C  0.50686252  0.37911337  0.60376574     0.02900
C1001       C  0.46496694  0.38011867  0.58629830     0.27800
C1002       C  0.46743157  0.40328587  0.56444637    -0.24800
N1003       N  0.59826304  0.44688948  0.57319692    -0.82200
H1004       H  0.58267548  0.39991910  0.61266152     0.13600
C1005       C  0.50457932  0.35628809  0.62763612     0.02900
N1006       N  0.41994293  0.35776544  0.59098037    -0.80800
H1007       H  0.43484823  0.40411066  0.55118124     0.18400
C1008       C  0.46802628  0.36469848  0.64711171    -0.25600
C1009       C  0.46537934  0.34432528  0.67037580     0.36400
C1010       C  0.49966868  0.31464542  0.67403110    -0.19600
C1011       C  0.53611344  0.30622394  0.65438422    -0.24900
C1012       C  0.53874357  0.32666989  0.63114417     0.27800
H1013       H  0.44210108  0.38768748  0.64428700     0.13500
N1014       N  0.42894336  0.35421723  0.69053571    -0.82200
H1015       H  0.56204928  0.28323858  0.65705190     0.18400
N1016       N  0.57553426  0.31735923  0.61098292    -0.80800
H1017       H  0.40649677  0.37658966  0.68471845     0.34000
H1018       H  0.45015552  0.36271552  0.70680768     0.38500
H1019       H  0.59791507  0.29487670  0.61664123     0.34000
H1020       H  0.55458679  0.30914776  0.59454307     0.30700
H1021       H  0.39228179  0.36192817  0.57640625     0.34000
H1022       H  0.43146516  0.33039009  0.58960871     0.30700
H1023       H  0.61833663  0.43685656  0.55688671     0.38600
H1024       H  0.62369657  0.44452006  0.58896192     0.34000
loop_ 
_geom_bond_atom_site_label_1 
_geom_bond_atom_site_label_2 
_geom_bond_distance 
_geom_bond_site_symmetry_2 
_ccdc_geom_bond_type 
O1           C11   1.278       .  A
O1         Cu521   1.998       .  S
O2           C12   1.277       .  A
O2           Cu9   2.006   1_554  S
O3           C13   1.279       .  A
O3         Cu521   2.019       .  S
O4           C14   1.279       .  A
O4           Cu9   2.010   1_554  S
O5           C14   1.278       .  A
O5         Cu522   2.013   1_554  S
O6           C13   1.279       .  A
O6          Cu10   2.016       .  S
O7           C12   1.278       .  A
O7         Cu522   2.004   1_554  S
O8           C11   1.278       .  A
O8          Cu10   2.014       .  S
Cu9         O513   1.998       .  S
Cu9         O515   2.019       .  S
Cu9        Cu522   2.368       .  S
Cu10        O517   2.013       .  S
Cu10        O519   2.004       .  S
Cu10       Cu521   2.368       .  S
C11         C414   1.486       .  S
C12         C485   1.485       .  S
C13         C457   1.484       .  S
C14         C429   1.489       .  S
O15          C25   1.278   1_455  A
O15         Cu23   2.011   1_554  S
O16          C26   1.278       .  A
O16        Cu535   2.012   1_545  S
O17          C27   1.278       .  A
O17         Cu23   2.009   1_544  S
O18          C28   1.277   1_455  A
O18        Cu535   1.998       .  S
O19          C28   1.278       .  A
O19        Cu536   2.014       .  S
O20          C27   1.278   1_655  A
O20         Cu24   2.007   1_544  S
O21          C26   1.280   1_655  A
O21        Cu536   2.018   1_545  S
O22          C25   1.277       .  A
O22         Cu24   2.009   1_554  S
Cu23        O528   2.012   1_565  S
Cu23        O530   1.998       .  S
Cu23        Cu24   2.370   1_455  S
Cu24        O531   2.014       .  S
Cu24        O533   2.018   1_565  S
C25         C330   1.477       .  S
C26         C345   1.493       .  S
C27         C373   1.483       .  S
C28         C289   1.476       .  S
C29          C31   1.553       .  S
C29          C33   1.533       .  S
C29          C32   1.545       .  S
C29         C218   1.539       .  S
C30          C34   1.539       .  S
C30          C36   1.544       .  S
C30          C35   1.545       .  S
C30         C233   1.538       .  S
C31          C39   1.387       .  A
C31          C34   1.399   1_655  A
C32          C43   1.381       .  A
C32          C35   1.393   1_655  A
C33          C47   1.377       .  A
C33          C36   1.391   1_655  A
C34          C37   1.378       .  A
C35          C41   1.384       .  A
C36          C44   1.382       .  A
C37          N38   1.357   1_455  A
C37          H50   1.082       .  S
N38          C39   1.360       .  A
N38         C274   1.443       .  S
C39          H40   1.081       .  S
C41          N42   1.358   1_455  A
C41          H51   1.082       .  S
N42          C43   1.357       .  A
N42         C358   1.443   1_655  S
C43          H49   1.082       .  S
C44          N45   1.358   1_455  A
C44          H46   1.081       .  S
N45          C47   1.356       .  A
N45         C386   1.439       .  S
C47          H48   1.082       .  S
C52          C54   1.552       .  S
C52          C56   1.534       .  S
C52          C55   1.540       .  S
C52         C177   1.539       .  S
C53          C57   1.555       .  S
C53          C59   1.536       .  S
C53          C58   1.529       .  S
C53         C162   1.534       .  S
C54          C62   1.382       .  A
C54          C57   1.406   1_455  A
C55          C66   1.381       .  A
C55          C58   1.388   1_455  A
C56          C70   1.377       .  A
C56          C59   1.388   1_455  A
C57          C60   1.384       .  A
C58          C64   1.375       .  A
C59          C67   1.378       .  A
C60          N61   1.359   1_655  A
C60          H73   1.081       .  S
N61          C62   1.361       .  A
N61         C261   1.447       .  S
C62          H63   1.082       .  S
C64          N65   1.353       .  A
C64          H74   1.083       .  S
N65          C66   1.354   1_655  A
N65         C302   1.432       .  S
C66          H72   1.082       .  S
C67          N68   1.356   1_655  A
C67          H69   1.082       .  S
N68          C70   1.357       .  A
N68         C317   1.436       .  S
C70          H71   1.083       .  S
C75          C77   1.560       .  S
C75          C79   1.532       .  S
C75          C78   1.540       .  S
C75         C149   1.539       .  S
C76          C80   1.553       .  S
C76          C82   1.541       .  S
C76          C81   1.530       .  S
C76         C190   1.538       .  S
C77          C85   1.387       .  A
C77          C80   1.408       .  A
C78          C89   1.380       .  A
C78          C81   1.386       .  A
C79          C93   1.379       .  A
C79          C82   1.388       .  A
C80          C83   1.383       .  A
C81          C87   1.377       .  A
C82          C90   1.380       .  A
C83          N84   1.359       .  A
C83          H96   1.081       .  S
N84          C85   1.361       .  A
N84         C121   1.451       .  S
C85          H86   1.079       .  S
C87          N88   1.357       .  A
C87          H97   1.083       .  S
N88          C89   1.359       .  A
N88         C442   1.441       .  S
C89          H95   1.082       .  S
C90          N91   1.355       .  A
C90          H92   1.082       .  S
N91          C93   1.356       .  A
N91         C401   1.436       .  S
C93          H94   1.083       .  S
C98         C100   1.551       .  S
C98         C102   1.544       .  S
C98         C101   1.527       .  S
C98         C246   1.536       .  S
C99         C103   1.556       .  S
C99         C105   1.540       .  S
C99         C104   1.528       .  S
C99         C205   1.533       .  S
C100        C108   1.383       .  A
C100        C103   1.412       .  A
C101        C112   1.377       .  A
C101        C104   1.379       .  A
C102        C116   1.379       .  A
C102        C105   1.392       .  A
C103        C106   1.387       .  A
C104        C110   1.376       .  A
C105        C113   1.380       .  A
C106        N107   1.358       .  A
C106        H119   1.080       .  S
N107        C108   1.357       .  A
N107        C134   1.450       .  S
C108        H109   1.082       .  S
C110        N111   1.358       .  A
C110        H120   1.083       .  S
N111        C112   1.359       .  A
N111        C498   1.440       .  S
C112        H118   1.082       .  S
C113        N114   1.358       .  A
C113        H115   1.081       .  S
N114        C116   1.358       .  A
N114        C470   1.440       .  S
C116        H117   1.082       .  S
C121        C122   1.416       .  A
C121        C126   1.408       .  A
C122        C123   1.409       .  A
C122        N127   1.437       .  S
C123        C124   1.401       .  A
C123        H128   1.084       .  S
C124        C129   1.489   1_565  S
C124        C125   1.409       .  A
C125        C126   1.411       .  A
C125        N130   1.437       .  S
C126        H131   1.083       .  S
N127        H147   1.046       .  S
N127        H148   1.046       .  S
C129        C132   1.401       .  A
C129        C136   1.409       .  A
N130        H145   1.046       .  S
N130        H146   1.045       .  S
C132        C133   1.409       .  A
C132        H137   1.084       .  S
C133        C134   1.418       .  A
C133        N138   1.437       .  S
C134        C135   1.407       .  A
C135        C136   1.410       .  A
C135        H139   1.082       .  S
C136        N140   1.437       .  S
N138        H141   1.046       .  S
N138        H142   1.046       .  S
N140        H143   1.046       .  S
N140        H144   1.045       .  S
C149        C150   1.427       .  A
C149        C154   1.407       .  A
C150        C151   1.402       .  A
C150        N155   1.439       .  S
C151        C152   1.397       .  A
C151        H156   1.084       .  S
C152        C157   1.488       .  S
C152        C153   1.411       .  A
C153        C154   1.408       .  A
C153        N158   1.438       .  S
C154        H159   1.074       .  S
N155        H175   1.043       .  S
N155        H176   1.045       .  S
C157        C160   1.398       .  A
C157        C164   1.412       .  A
N158        H173   1.045       .  S
N158        H174   1.046       .  S
C160        C161   1.399       .  A
C160        H165   1.084       .  S
C161        C162   1.422       .  A
C161        N166   1.434       .  S
C162        C163   1.408       .  A
C163        C164   1.407       .  A
C163        H167   1.075       .  S
C164        N168   1.438       .  S
N166        H169   1.046       .  S
N166        H170   1.046       .  S
N168        H171   1.046       .  S
N168        H172   1.046       .  S
C177        C178   1.420       .  A
C177        C182   1.413       .  A
C178        C179   1.410       .  A
C178        N183   1.437       .  S
C179        C180   1.403       .  A
C179        H184   1.084       .  S
C180        C185   1.485       .  S
C180        C181   1.404       .  A
C181        C182   1.401       .  A
C181        N186   1.439       .  S
C182        H187   1.077       .  S
N183        H203   1.045       .  S
N183        H204   1.045       .  S
C185        C188   1.403       .  A
C185        C192   1.404       .  A
N186        H201   1.046       .  S
N186        H202   1.045       .  S
C188        C189   1.410       .  A
C188        H193   1.084       .  S
C189        C190   1.420       .  A
C189        N194   1.436       .  S
C190        C191   1.413       .  A
C191        C192   1.401       .  A
C191        H195   1.078       .  S
C192        N196   1.439       .  S
N194        H197   1.045       .  S
N194        H198   1.045       .  S
N196        H199   1.046       .  S
N196        H200   1.046       .  S
C205        C206   1.420       .  A
C205        C210   1.406       .  A
C206        C207   1.399       .  A
C206        N211   1.434       .  S
C207        C208   1.400       .  A
C207        H212   1.083       .  S
C208        C213   1.494       .  S
C208        C209   1.415       .  A
C209        C210   1.408       .  A
C209        N214   1.438       .  S
C210        H215   1.077       .  S
N211        H231   1.046       .  S
N211        H232   1.046       .  S
C213        C216   1.399       .  A
C213        C220   1.413       .  A
N214        H229   1.046       .  S
N214        H230   1.045       .  S
C216        C217   1.402       .  A
C216        H221   1.083       .  S
C217        C218   1.426       .  A
C217        N222   1.439       .  S
C218        C219   1.408       .  A
C219        C220   1.408       .  A
C219        H223   1.077       .  S
C220        N224   1.438       .  S
N222        H225   1.045       .  S
N222        H226   1.043       .  S
N224        H227   1.046       .  S
N224        H228   1.046       .  S
C233        C234   1.419       .  A
C233        C238   1.409       .  A
C234        C235   1.406       .  A
C234        N239   1.437       .  S
C235        C236   1.402       .  A
C235        H240   1.083       .  S
C236        C241   1.488       .  S
C236        C237   1.408       .  A
C237        C238   1.405       .  A
C237        N242   1.438       .  S
C238        H243   1.079       .  S
N239        H259   1.043       .  S
N239        H260   1.046       .  S
C241        C244   1.403       .  A
C241        C248   1.407       .  A
N242        H257   1.045       .  S
N242        H258   1.046       .  S
C244        C245   1.408       .  A
C244        H249   1.083       .  S
C245        C246   1.419       .  A
C245        N250   1.436       .  S
C246        C247   1.412       .  A
C247        C248   1.403       .  A
C247        H251   1.082       .  S
C248        N252   1.438       .  S
N250        H253   1.045       .  S
N250        H254   1.046       .  S
N252        H255   1.046       .  S
N252        H256   1.045       .  S
C261        C262   1.414       .  A
C261        C266   1.407   1_455  A
C262        C263   1.408       .  A
C262        N267   1.437       .  S
C263        C264   1.401   1_455  A
C263        H268   1.084       .  S
C264        C269   1.488       .  S
C264        C265   1.410       .  A
C265        C266   1.411       .  A
C265        N270   1.438       .  S
C266        H271   1.083       .  S
N267        H287   1.046       .  S
N267        H288   1.045       .  S
C269        C272   1.403   1_655  A
C269        C276   1.411       .  A
N270        H285   1.046       .  S
N270        H286   1.045       .  S
C272        C273   1.410       .  A
C272        H277   1.084       .  S
C273        C274   1.411   1_455  A
C273        N278   1.437       .  S
C274        C275   1.404       .  A
C275        C276   1.409       .  A
C275        H279   1.083       .  S
C276        N280   1.437       .  S
N278        H281   1.046       .  S
N278        H282   1.045       .  S
N280        H283   1.045       .  S
N280        H284   1.046       .  S
C289        C290   1.412       .  A
C289        C294   1.404   1_655  A
C290        C291   1.406       .  A
C290        N295   1.437       .  S
C291        C292   1.400       .  A
C291        H296   1.084       .  S
C292        C297   1.472       .  S
C292        C293   1.407   1_655  A
C293        C294   1.402       .  A
C293        N298   1.438       .  S
C294        H299   1.084       .  S
N295        H315   1.046       .  S
N295        H316   1.046       .  S
C297        C300   1.400       .  A
C297        C304   1.408   1_655  A
N298        H313   1.046       .  S
N298        H314   1.045       .  S
C300        C301   1.403       .  A
C300        H305   1.084       .  S
C301        C302   1.409       .  A
C301        N306   1.437       .  S
C302        C303   1.402   1_655  A
C303        C304   1.404       .  A
C303        H307   1.083       .  S
C304        N308   1.438       .  S
N306        H309   1.046       .  S
N306        H310   1.046       .  S
N308        H311   1.045       .  S
N308        H312   1.046       .  S
C317        C318   1.409   1_455  A
C317        C322   1.402       .  A
C318        C319   1.407       .  A
C318        N323   1.436       .  S
C319        C320   1.402       .  A
C319        H324   1.084       .  S
C320        C325   1.477       .  S
C320        C321   1.408   1_655  A
C321        C322   1.403       .  A
C321        N326   1.438       .  S
C322        H327   1.083       .  S
N323        H343   1.045       .  S
N323        H344   1.046       .  S
C325        C328   1.401       .  A
C325        C332   1.407   1_655  A
N326        H341   1.045       .  S
N326        H342   1.046       .  S
C328        C329   1.406       .  A
C328        H333   1.084       .  S
C329        C330   1.413       .  A
C329        N334   1.438       .  S
C330        C331   1.404   1_655  A
C331        C332   1.405       .  A
C331        H335   1.084       .  S
C332        N336   1.438       .  S
N334        H337   1.046       .  S
N334        H338   1.046       .  S
N336        H339   1.046       .  S
N336        H340   1.045       .  S
C345        C346   1.419       .  A
C345        C350   1.408   1_455  A
C346        C347   1.408       .  A
C346        N351   1.438       .  S
C347        C348   1.401       .  A
C347        H352   1.084       .  S
C348        C353   1.487       .  S
C348        C349   1.408   1_455  A
C349        C350   1.407       .  A
C349        N354   1.438       .  S
C350        H355   1.083       .  S
N351        H371   1.045       .  S
N351        H372   1.046       .  S
C353        C356   1.403   1_455  A
C353        C360   1.410       .  A
N354        H369   1.046       .  S
N354        H370   1.046       .  S
C356        C357   1.408       .  A
C356        H361   1.084       .  S
C357        C358   1.413   1_655  A
C357        N362   1.437       .  S
C358        C359   1.404       .  A
C359        C360   1.407       .  A
C359        H363   1.083       .  S
C360        N364   1.437       .  S
N362        H365   1.046       .  S
N362        H366   1.045       .  S
N364        H367   1.046       .  S
N364        H368   1.046       .  S
C373        C374   1.415       .  A
C373        C378   1.406   1_455  A
C374        C375   1.407       .  A
C374        N379   1.438       .  S
C375        C376   1.402   1_455  A
C375        H380   1.084       .  S
C376        C381   1.479       .  S
C376        C377   1.407       .  A
C377        C378   1.403       .  A
C377        N382   1.438       .  S
C378        H383   1.084       .  S
N379        H399   1.045       .  S
N379        H400   1.046       .  S
C381        C384   1.403       .  A
C381        C388   1.407   1_655  A
N382        H397   1.046       .  S
N382        H398   1.046       .  S
C384        C385   1.406       .  A
C384        H389   1.084       .  S
C385        C386   1.412       .  A
C385        N390   1.437       .  S
C386        C387   1.404   1_655  A
C387        C388   1.403       .  A
C387        H391   1.083       .  S
C388        N392   1.437       .  S
N390        H393   1.046       .  S
N390        H394   1.046       .  S
N392        H395   1.045       .  S
N392        H396   1.046       .  S
C401        C402   1.409       .  A
C401        C406   1.403       .  A
C402        C403   1.406       .  A
C402        N407   1.437       .  S
C403        C404   1.404       .  A
C403        H408   1.084       .  S
C404        C409   1.480       .  S
C404        C405   1.409       .  A
C405        C406   1.402       .  A
C405        N410   1.438       .  S
C406        H411   1.083       .  S
N407        H427   1.046       .  S
N407        H428   1.045       .  S
C409        C412   1.403       .  A
C409        C416   1.407       .  A
N410        H425   1.045       .  S
N410        H426   1.046       .  S
C412        C413   1.408       .  A
C412        H417   1.084       .  S
C413        C414   1.417       .  A
C413        N418   1.438       .  S
C414        C415   1.406       .  A
C415        C416   1.401       .  A
C415        H419   1.083       .  S
C416        N420   1.438       .  S
N418        H421   1.046       .  S
N418        H422   1.046       .  S
N420        H423   1.046       .  S
N420        H424   1.045       .  S
C429        C430   1.418       .  A
C429        C434   1.407       .  A
C430        C431   1.407       .  A
C430        N435   1.438       .  S
C431        C432   1.401       .  A
C431        H436   1.084       .  S
C432        C437   1.484       .  S
C432        C433   1.408       .  A
C433        C434   1.405       .  A
C433        N438   1.438       .  S
C434        H439   1.083       .  S
N435        H455   1.046       .  S
N435        H456   1.045       .  S
C437        C440   1.401       .  A
C437        C444   1.410       .  A
N438        H453   1.045       .  S
N438        H454   1.046       .  S
C440        C441   1.404       .  A
C440        H445   1.084       .  S
C441        C442   1.413       .  A
C441        N446   1.437       .  S
C442        C443   1.405       .  A
C443        C444   1.407       .  A
C443        H447   1.083       .  S
C444        N448   1.437       .  S
N446        H449   1.046       .  S
N446        H450   1.045       .  S
N448        H451   1.046       .  S
N448        H452   1.045       .  S
C457        C458   1.414       .  A
C457        C462   1.406       .  A
C458        C459   1.408       .  A
C458        N463   1.438       .  S
C459        C460   1.402       .  A
C459        H464   1.084       .  S
C460        C465   1.481       .  S
C460        C461   1.408       .  A
C461        C462   1.407       .  A
C461        N466   1.438       .  S
C462        H467   1.084       .  S
N463        H483   1.046       .  S
N463        H484   1.045       .  S
C465        C468   1.403       .  A
C465        C472   1.408       .  A
N466        H481   1.046       .  S
N466        H482   1.045       .  S
C468        C469   1.410       .  A
C468        H473   1.083       .  S
C469        C470   1.411       .  A
C469        N474   1.436       .  S
C470        C471   1.404       .  A
C471        C472   1.403       .  A
C471        H475   1.083       .  S
C472        N476   1.438       .  S
N474        H477   1.046       .  S
N474        H478   1.046       .  S
N476        H479   1.046       .  S
N476        H480   1.044       .  S
C485        C486   1.418       .  A
C485        C490   1.406       .  A
C486        C487   1.406       .  A
C486        N491   1.438       .  S
C487        C488   1.401       .  A
C487        H492   1.084       .  S
C488        C493   1.478       .  S
C488        C489   1.406       .  A
C489        C490   1.402       .  A
C489        N494   1.438       .  S
C490        H495   1.083       .  S
N491        H511   1.045       .  S
N491        H512   1.046       .  S
C493        C496   1.401       .  A
C493        C500   1.408       .  A
N494        H509   1.046       .  S
N494        H510   1.045       .  S
C496        C497   1.404       .  A
C496        H501   1.084       .  S
C497        C498   1.412       .  A
C497        N502   1.437       .  S
C498        C499   1.406       .  A
C499        C500   1.404       .  A
C499        H503   1.083       .  S
C500        N504   1.438       .  S
N502        H505   1.046       .  S
N502        H506   1.045       .  S
N504        H507   1.046       .  S
N504        H508   1.046       .  S
O513        C523   1.278       .  A
O514        C524   1.277       .  A
O514       Cu521   2.006       .  S
O515        C525   1.279       .  A
O516        C526   1.279       .  A
O516       Cu521   2.010       .  S
O517        C526   1.278       .  A
O518        C525   1.279       .  A
O518       Cu522   2.016       .  S
O519        C524   1.278       .  A
O520        C523   1.278       .  A
O520       Cu522   2.014       .  S
C523        C926   1.486       .  S
C524        C997   1.485       .  S
C525        C969   1.484       .  S
C526        C941   1.489       .  S
O527        C537   1.278   1_455  A
O527       Cu535   2.011       .  S
O528        C538   1.278       .  A
O529        C539   1.278       .  A
O529       Cu535   2.009   1_545  S
O530        C540   1.277   1_455  A
O531        C540   1.278       .  A
O532        C539   1.278   1_655  A
O532       Cu536   2.007   1_545  S
O533        C538   1.280   1_655  A
O534        C537   1.277       .  A
O534       Cu536   2.009       .  S
Cu535      Cu536   2.370   1_455  S
C537        C842   1.477       .  S
C538        C857   1.493       .  S
C539        C885   1.483       .  S
C540        C801   1.476       .  S
C541        C543   1.553       .  S
C541        C545   1.533       .  S
C541        C544   1.545       .  S
C541        C730   1.539       .  S
C542        C546   1.539       .  S
C542        C548   1.544       .  S
C542        C547   1.545       .  S
C542        C745   1.538       .  S
C543        C551   1.387       .  A
C543        C546   1.399   1_655  A
C544        C555   1.381       .  A
C544        C547   1.393   1_655  A
C545        C559   1.377       .  A
C545        C548   1.391   1_655  A
C546        C549   1.378       .  A
C547        C553   1.384       .  A
C548        C556   1.382       .  A
C549        N550   1.357   1_455  A
C549        H562   1.082       .  S
N550        C551   1.360       .  A
N550        C786   1.442       .  S
C551        H552   1.081       .  S
C553        N554   1.358   1_455  A
C553        H563   1.082       .  S
N554        C555   1.357       .  A
N554        C870   1.443   1_655  S
C555        H561   1.082       .  S
C556        N557   1.358   1_455  A
C556        H558   1.081       .  S
N557        C559   1.356       .  A
N557        C898   1.439       .  S
C559        H560   1.082       .  S
C564        C566   1.552       .  S
C564        C568   1.534       .  S
C564        C567   1.540       .  S
C564        C689   1.539       .  S
C565        C569   1.555       .  S
C565        C571   1.536       .  S
C565        C570   1.529       .  S
C565        C674   1.534       .  S
C566        C574   1.382       .  A
C566        C569   1.406   1_455  A
C567        C578   1.381       .  A
C567        C570   1.388   1_455  A
C568        C582   1.377       .  A
C568        C571   1.388   1_455  A
C569        C572   1.384       .  A
C570        C576   1.375       .  A
C571        C579   1.378       .  A
C572        N573   1.359   1_655  A
C572        H585   1.081       .  S
N573        C574   1.361       .  A
N573        C773   1.447       .  S
C574        H575   1.082       .  S
C576        N577   1.353       .  A
C576        H586   1.083       .  S
N577        C578   1.354   1_655  A
N577        C814   1.432       .  S
C578        H584   1.082       .  S
C579        N580   1.356   1_655  A
C579        H581   1.082       .  S
N580        C582   1.357       .  A
N580        C829   1.436       .  S
C582        H583   1.083       .  S
C587        C589   1.560       .  S
C587        C591   1.532       .  S
C587        C590   1.540       .  S
C587        C661   1.539       .  S
C588        C592   1.553       .  S
C588        C594   1.541       .  S
C588        C593   1.530       .  S
C588        C702   1.538       .  S
C589        C597   1.387       .  A
C589        C592   1.408       .  A
C590        C601   1.380       .  A
C590        C593   1.386       .  A
C591        C605   1.379       .  A
C591        C594   1.388       .  A
C592        C595   1.383       .  A
C593        C599   1.377       .  A
C594        C602   1.380       .  A
C595        N596   1.359       .  A
C595        H608   1.081       .  S
N596        C597   1.361       .  A
N596        C633   1.451       .  S
C597        H598   1.079       .  S
C599        N600   1.357       .  A
C599        H609   1.083       .  S
N600        C601   1.359       .  A
N600        C954   1.441       .  S
C601        H607   1.082       .  S
C602        N603   1.355       .  A
C602        H604   1.082       .  S
N603        C605   1.356       .  A
N603        C913   1.436       .  S
C605        H606   1.083       .  S
C610        C612   1.551       .  S
C610        C614   1.544       .  S
C610        C613   1.527       .  S
C610        C758   1.536       .  S
C611        C615   1.556       .  S
C611        C617   1.540       .  S
C611        C616   1.528       .  S
C611        C717   1.533       .  S
C612        C620   1.383       .  A
C612        C615   1.412       .  A
C613        C624   1.377       .  A
C613        C616   1.379       .  A
C614        C628   1.379       .  A
C614        C617   1.392       .  A
C615        C618   1.387       .  A
C616        C622   1.376       .  A
C617        C625   1.380       .  A
C618        N619   1.358       .  A
C618        H631   1.080       .  S
N619        C620   1.357       .  A
N619        C646   1.450       .  S
C620        H621   1.082       .  S
C622        N623   1.358       .  A
C622        H632   1.083       .  S
N623        C624   1.359       .  A
N623       C1010   1.440       .  S
C624        H630   1.082       .  S
C625        N626   1.358       .  A
C625        H627   1.081       .  S
N626        C628   1.358       .  A
N626        C982   1.440       .  S
C628        H629   1.082       .  S
C633        C634   1.416       .  A
C633        C638   1.408       .  A
C634        C635   1.409       .  A
C634        N639   1.437       .  S
C635        C636   1.401       .  A
C635        H640   1.084       .  S
C636        C641   1.489   1_565  S
C636        C637   1.409       .  A
C637        C638   1.411       .  A
C637        N642   1.437       .  S
C638        H643   1.083       .  S
N639        H659   1.046       .  S
N639        H660   1.046       .  S
C641        C644   1.401       .  A
C641        C648   1.409       .  A
N642        H657   1.046       .  S
N642        H658   1.045       .  S
C644        C645   1.409       .  A
C644        H649   1.084       .  S
C645        C646   1.418       .  A
C645        N650   1.437       .  S
C646        C647   1.407       .  A
C647        C648   1.410       .  A
C647        H651   1.082       .  S
C648        N652   1.437       .  S
N650        H653   1.046       .  S
N650        H654   1.046       .  S
N652        H655   1.046       .  S
N652        H656   1.045       .  S
C661        C662   1.427       .  A
C661        C666   1.407       .  A
C662        C663   1.402       .  A
C662        N667   1.439       .  S
C663        C664   1.397       .  A
C663        H668   1.084       .  S
C664        C669   1.488       .  S
C664        C665   1.411       .  A
C665        C666   1.408       .  A
C665        N670   1.438       .  S
C666        H671   1.074       .  S
N667        H687   1.043       .  S
N667        H688   1.045       .  S
C669        C672   1.398       .  A
C669        C676   1.412       .  A
N670        H685   1.045       .  S
N670        H686   1.046       .  S
C672        C673   1.399       .  A
C672        H677   1.084       .  S
C673        C674   1.422       .  A
C673        N678   1.434       .  S
C674        C675   1.408       .  A
C675        C676   1.407       .  A
C675        H679   1.075       .  S
C676        N680   1.438       .  S
N678        H681   1.046       .  S
N678        H682   1.046       .  S
N680        H683   1.046       .  S
N680        H684   1.046       .  S
C689        C690   1.420       .  A
C689        C694   1.413       .  A
C690        C691   1.410       .  A
C690        N695   1.437       .  S
C691        C692   1.403       .  A
C691        H696   1.084       .  S
C692        C697   1.485       .  S
C692        C693   1.404       .  A
C693        C694   1.401       .  A
C693        N698   1.439       .  S
C694        H699   1.077       .  S
N695        H715   1.045       .  S
N695        H716   1.045       .  S
C697        C700   1.403       .  A
C697        C704   1.404       .  A
N698        H713   1.046       .  S
N698        H714   1.045       .  S
C700        C701   1.410       .  A
C700        H705   1.084       .  S
C701        C702   1.420       .  A
C701        N706   1.436       .  S
C702        C703   1.413       .  A
C703        C704   1.401       .  A
C703        H707   1.078       .  S
C704        N708   1.439       .  S
N706        H709   1.045       .  S
N706        H710   1.045       .  S
N708        H711   1.046       .  S
N708        H712   1.046       .  S
C717        C718   1.420       .  A
C717        C722   1.406       .  A
C718        C719   1.399       .  A
C718        N723   1.434       .  S
C719        C720   1.400       .  A
C719        H724   1.083       .  S
C720        C725   1.494       .  S
C720        C721   1.415       .  A
C721        C722   1.408       .  A
C721        N726   1.438       .  S
C722        H727   1.077       .  S
N723        H743   1.046       .  S
N723        H744   1.046       .  S
C725        C728   1.399       .  A
C725        C732   1.413       .  A
N726        H741   1.046       .  S
N726        H742   1.045       .  S
C728        C729   1.402       .  A
C728        H733   1.083       .  S
C729        C730   1.426       .  A
C729        N734   1.439       .  S
C730        C731   1.408       .  A
C731        C732   1.408       .  A
C731        H735   1.077       .  S
C732        N736   1.438       .  S
N734        H737   1.045       .  S
N734        H738   1.043       .  S
N736        H739   1.046       .  S
N736        H740   1.046       .  S
C745        C746   1.419       .  A
C745        C750   1.409       .  A
C746        C747   1.406       .  A
C746        N751   1.437       .  S
C747        C748   1.402       .  A
C747        H752   1.083       .  S
C748        C753   1.488       .  S
C748        C749   1.408       .  A
C749        C750   1.405       .  A
C749        N754   1.438       .  S
C750        H755   1.079       .  S
N751        H771   1.043       .  S
N751        H772   1.046       .  S
C753        C756   1.403       .  A
C753        C760   1.407       .  A
N754        H769   1.045       .  S
N754        H770   1.046       .  S
C756        C757   1.408       .  A
C756        H761   1.083       .  S
C757        C758   1.419       .  A
C757        N762   1.436       .  S
C758        C759   1.412       .  A
C759        C760   1.403       .  A
C759        H763   1.082       .  S
C760        N764   1.438       .  S
N762        H765   1.045       .  S
N762        H766   1.046       .  S
N764        H767   1.046       .  S
N764        H768   1.045       .  S
C773        C774   1.414       .  A
C773        C778   1.407   1_455  A
C774        C775   1.408       .  A
C774        N779   1.437       .  S
C775        C776   1.401   1_455  A
C775        H780   1.084       .  S
C776        C781   1.488       .  S
C776        C777   1.410       .  A
C777        C778   1.411       .  A
C777        N782   1.438       .  S
C778        H783   1.083       .  S
N779        H799   1.046       .  S
N779        H800   1.045       .  S
C781        C784   1.403   1_655  A
C781        C788   1.411       .  A
N782        H797   1.046       .  S
N782        H798   1.045       .  S
C784        C785   1.410       .  A
C784        H789   1.084       .  S
C785        C786   1.411   1_455  A
C785        N790   1.437       .  S
C786        C787   1.404       .  A
C787        C788   1.409       .  A
C787        H791   1.083       .  S
C788        N792   1.437       .  S
N790        H793   1.046       .  S
N790        H794   1.045       .  S
N792        H795   1.045       .  S
N792        H796   1.046       .  S
C801        C802   1.412       .  A
C801        C806   1.404   1_655  A
C802        C803   1.406       .  A
C802        N807   1.437       .  S
C803        C804   1.400       .  A
C803        H808   1.084       .  S
C804        C809   1.472       .  S
C804        C805   1.407   1_655  A
C805        C806   1.402       .  A
C805        N810   1.438       .  S
C806        H811   1.084       .  S
N807        H827   1.046       .  S
N807        H828   1.046       .  S
C809        C812   1.400       .  A
C809        C816   1.408   1_655  A
N810        H825   1.046       .  S
N810        H826   1.045       .  S
C812        C813   1.403       .  A
C812        H817   1.084       .  S
C813        C814   1.409       .  A
C813        N818   1.437       .  S
C814        C815   1.402   1_655  A
C815        C816   1.404       .  A
C815        H819   1.083       .  S
C816        N820   1.438       .  S
N818        H821   1.046       .  S
N818        H822   1.046       .  S
N820        H823   1.045       .  S
N820        H824   1.046       .  S
C829        C830   1.409   1_455  A
C829        C834   1.402       .  A
C830        C831   1.407       .  A
C830        N835   1.436       .  S
C831        C832   1.402       .  A
C831        H836   1.084       .  S
C832        C837   1.477       .  S
C832        C833   1.408   1_655  A
C833        C834   1.403       .  A
C833        N838   1.438       .  S
C834        H839   1.083       .  S
N835        H855   1.045       .  S
N835        H856   1.046       .  S
C837        C840   1.401       .  A
C837        C844   1.407   1_655  A
N838        H853   1.045       .  S
N838        H854   1.046       .  S
C840        C841   1.406       .  A
C840        H845   1.084       .  S
C841        C842   1.413       .  A
C841        N846   1.438       .  S
C842        C843   1.404   1_655  A
C843        C844   1.405       .  A
C843        H847   1.084       .  S
C844        N848   1.438       .  S
N846        H849   1.046       .  S
N846        H850   1.046       .  S
N848        H851   1.046       .  S
N848        H852   1.045       .  S
C857        C858   1.419       .  A
C857        C862   1.408   1_455  A
C858        C859   1.408       .  A
C858        N863   1.438       .  S
C859        C860   1.401       .  A
C859        H864   1.084       .  S
C860        C865   1.487       .  S
C860        C861   1.408   1_455  A
C861        C862   1.407       .  A
C861        N866   1.438       .  S
C862        H867   1.083       .  S
N863        H883   1.045       .  S
N863        H884   1.046       .  S
C865        C868   1.403   1_455  A
C865        C872   1.410       .  A
N866        H881   1.046       .  S
N866        H882   1.046       .  S
C868        C869   1.408       .  A
C868        H873   1.084       .  S
C869        C870   1.413   1_655  A
C869        N874   1.437       .  S
C870        C871   1.404       .  A
C871        C872   1.407       .  A
C871        H875   1.083       .  S
C872        N876   1.437       .  S
N874        H877   1.046       .  S
N874        H878   1.045       .  S
N876        H879   1.046       .  S
N876        H880   1.046       .  S
C885        C886   1.415       .  A
C885        C890   1.406   1_455  A
C886        C887   1.407       .  A
C886        N891   1.438       .  S
C887        C888   1.402   1_455  A
C887        H892   1.084       .  S
C888        C893   1.479       .  S
C888        C889   1.407       .  A
C889        C890   1.403       .  A
C889        N894   1.438       .  S
C890        H895   1.084       .  S
N891        H911   1.045       .  S
N891        H912   1.046       .  S
C893        C896   1.403       .  A
C893        C900   1.407   1_655  A
N894        H909   1.046       .  S
N894        H910   1.046       .  S
C896        C897   1.406       .  A
C896        H901   1.084       .  S
C897        C898   1.412       .  A
C897        N902   1.437       .  S
C898        C899   1.404   1_655  A
C899        C900   1.403       .  A
C899        H903   1.083       .  S
C900        N904   1.437       .  S
N902        H905   1.046       .  S
N902        H906   1.046       .  S
N904        H907   1.045       .  S
N904        H908   1.046       .  S
C913        C914   1.409       .  A
C913        C918   1.403       .  A
C914        C915   1.406       .  A
C914        N919   1.437       .  S
C915        C916   1.404       .  A
C915        H920   1.084       .  S
C916        C921   1.480       .  S
C916        C917   1.409       .  A
C917        C918   1.402       .  A
C917        N922   1.438       .  S
C918        H923   1.083       .  S
N919        H939   1.046       .  S
N919        H940   1.045       .  S
C921        C924   1.403       .  A
C921        C928   1.407       .  A
N922        H937   1.045       .  S
N922        H938   1.046       .  S
C924        C925   1.408       .  A
C924        H929   1.084       .  S
C925        C926   1.417       .  A
C925        N930   1.438       .  S
C926        C927   1.406       .  A
C927        C928   1.401       .  A
C927        H931   1.083       .  S
C928        N932   1.438       .  S
N930        H933   1.046       .  S
N930        H934   1.046       .  S
N932        H935   1.046       .  S
N932        H936   1.045       .  S
C941        C942   1.418       .  A
C941        C946   1.407       .  A
C942        C943   1.407       .  A
C942        N947   1.438       .  S
C943        C944   1.401       .  A
C943        H948   1.084       .  S
C944        C949   1.484       .  S
C944        C945   1.408       .  A
C945        C946   1.405       .  A
C945        N950   1.438       .  S
C946        H951   1.083       .  S
N947        H967   1.046       .  S
N947        H968   1.045       .  S
C949        C952   1.401       .  A
C949        C956   1.410       .  A
N950        H965   1.045       .  S
N950        H966   1.046       .  S
C952        C953   1.404       .  A
C952        H957   1.084       .  S
C953        C954   1.413       .  A
C953        N958   1.437       .  S
C954        C955   1.405       .  A
C955        C956   1.407       .  A
C955        H959   1.083       .  S
C956        N960   1.437       .  S
N958        H961   1.046       .  S
N958        H962   1.045       .  S
N960        H963   1.046       .  S
N960        H964   1.045       .  S
C969        C970   1.414       .  A
C969        C974   1.406       .  A
C970        C971   1.408       .  A
C970        N975   1.438       .  S
C971        C972   1.402       .  A
C971        H976   1.084       .  S
C972        C977   1.481       .  S
C972        C973   1.408       .  A
C973        C974   1.407       .  A
C973        N978   1.438       .  S
C974        H979   1.084       .  S
N975        H995   1.046       .  S
N975        H996   1.045       .  S
C977        C980   1.403       .  A
C977        C984   1.408       .  A
N978        H993   1.046       .  S
N978        H994   1.045       .  S
C980        C981   1.410       .  A
C980        H985   1.083       .  S
C981        C982   1.411       .  A
C981        N986   1.436       .  S
C982        C983   1.404       .  A
C983        C984   1.403       .  A
C983        H987   1.083       .  S
C984        N988   1.438       .  S
N986        H989   1.046       .  S
N986        H990   1.046       .  S
N988        H991   1.046       .  S
N988        H992   1.044       .  S
C997        C998   1.418       .  A
C997       C1002   1.406       .  A
C998        C999   1.406       .  A
C998       N1003   1.438       .  S
C999       C1000   1.401       .  A
C999       H1004   1.084       .  S
C1000      C1005   1.478       .  S
C1000      C1001   1.406       .  A
C1001      C1002   1.402       .  A
C1001      N1006   1.438       .  S
C1002      H1007   1.083       .  S
N1003      H1023   1.045       .  S
N1003      H1024   1.046       .  S
C1005      C1008   1.401       .  A
C1005      C1012   1.408       .  A
N1006      H1021   1.046       .  S
N1006      H1022   1.045       .  S
C1008      C1009   1.404       .  A
C1008      H1013   1.084       .  S
C1009      C1010   1.412       .  A
C1009      N1014   1.437       .  S
C1010      C1011   1.406       .  A
C1011      C1012   1.404       .  A
C1011      H1015   1.083       .  S
C1012      N1016   1.438       .  S
N1014      H1017   1.046       .  S
N1014      H1018   1.045       .  S
N1016      H1019   1.046       .  S
N1016      H1020   1.046       .  S
