geometry optimzed in LAMMPS
_audit_creation_date              2020-11-30 
_audit_creation_method            'lammps2cif' 
_symmetry_space_group_name_H-M    'P1' 
_symmetry_Int_Tables_number       1 
_symmetry_cell_setting            triclinic 
loop_ 
_symmetry_equiv_pos_as_xyz 
  x,y,z 
_cell_length_a                    25.08251168 
_cell_length_b                    24.86378935220506 
_cell_length_c                    24.608108424518885 
_cell_angle_alpha                 90.14812538852794 
_cell_angle_beta                  90.14663535823205 
_cell_angle_gamma                 89.99594709117952 
loop_ 
_atom_site_label 
_atom_site_type_symbol 
_atom_site_fract_x 
_atom_site_fract_y 
_atom_site_fract_z 
_atom_site_charge 
N1          N  0.61364380  0.45675406  0.06391223    -0.04300
N2          N  0.65128158  0.45358186  0.10122259    -0.56400
N3          N  0.56348986  0.38717008  0.46136011    -0.04000
N4          N  0.57639080  0.34494550  0.43184559    -0.58600
N5          N  0.59798973  0.42639491  0.45448721    -0.03600
N6          N  0.63508565  0.41179241  0.41946764    -0.56400
N7          N  0.58244472  0.41436110  0.06550842    -0.03300
N8          N  0.59770096  0.38154397  0.10449920    -0.58900
C9          C  0.64025835  0.40692716  0.12658916     0.97900
C10         C  0.62065601  0.36106222  0.40578602     0.97600
N11         N  0.40401703  0.41817443  0.43858767    -0.04500
N12         N  0.37604236  0.40380320  0.39570198    -0.57000
N13         N  0.45938838  0.39414617  0.06561878    -0.02600
N14         N  0.45626965  0.35950955  0.10606055    -0.58300
N15         N  0.41689731  0.42503632  0.06424675    -0.04500
N16         N  0.38382358  0.41219173  0.10340408    -0.57300
N17         N  0.44055318  0.38197707  0.44983298    -0.02300
N18         N  0.43804313  0.34171809  0.41488757    -0.58400
Mn19       Mn  0.52099366  0.40130888  0.00341145     1.18400
C20         C  0.39802372  0.35638541  0.38122345     0.99900
C21         C  0.40895861  0.37157074  0.12918046     1.00600
N22         N  0.59249202  0.55319159  0.43344597    -0.04600
N23         N  0.62794145  0.55962944  0.39430596    -0.60900
N24         N  0.54996932  0.61136591  0.06333550    -0.03400
N25         N  0.55412919  0.64768994  0.10233888    -0.61500
N26         N  0.59180117  0.57952213  0.06332712    -0.04100
N27         N  0.62492392  0.59270212  0.10262170    -0.61100
N28         N  0.55302445  0.58745505  0.42721189    -0.03000
N29         N  0.55961634  0.61672416  0.38336585    -0.61800
Mn30       Mn  0.59366461  0.49950882  0.50497471     1.10700
C31         C  0.60614222  0.59895833  0.36323607     1.01200
C32         C  0.60076420  0.63487673  0.12671975     1.01200
N33         N  0.39496551  0.54838658  0.06231569    -0.04100
N34         N  0.35628949  0.55330427  0.09813267    -0.59400
N35         N  0.43143974  0.58194523  0.41927052    -0.03400
N36         N  0.42268311  0.61373938  0.37761150    -0.56200
N37         N  0.39729433  0.54197145  0.41936335    -0.04700
N38         N  0.36423935  0.54568069  0.37774522    -0.59000
N39         N  0.42604049  0.59095160  0.06306278    -0.03700
N40         N  0.40950627  0.62567078  0.09985001    -0.56200
Mn41       Mn  0.40461559  0.48540476  0.00146558     1.20200
Mn42       Mn  0.48841785  0.59495604  0.48509418     1.10100
Cl43       Cl  0.50430668  0.50176515  0.00202887    -0.84200
C44         C  0.36634927  0.60132479  0.12152960     0.98200
C45         C  0.38106170  0.59039423  0.35192542     0.98000
N46         N  0.40178840  0.93773098  0.06516089    -0.04300
N47         N  0.36145800  0.90605746  0.07793383    -0.56400
N48         N  0.44002511  0.05985840  0.10346501    -0.04000
N49         N  0.42619196  0.09319659  0.14296679    -0.58600
N50         N  0.40363764  0.06003220  0.06475360    -0.03600
N51         N  0.36455312  0.09346466  0.07712411    -0.56400
N52         N  0.43804292  0.93735402  0.10399143    -0.03300
N53         N  0.42290863  0.90536506  0.14394789    -0.58900
C54         C  0.37549925  0.88573134  0.12671164     0.97900
C55         C  0.37948812  0.11427151  0.12552889     0.97600
N56         N  0.60564685  0.05685409  0.06796651    -0.04500
N57         N  0.64414989  0.09081798  0.08127857    -0.57000
N58         N  0.56574670  0.93509580  0.10586931    -0.02600
N59         N  0.57732927  0.90188409  0.14609820    -0.58300
N60         N  0.60354657  0.93392748  0.06871209    -0.04500
N61         N  0.64151360  0.89984918  0.08324019    -0.57300
N62         N  0.56778711  0.05773268  0.10504713    -0.02300
N63         N  0.57985535  0.09226076  0.14411557    -0.58400
Mn64       Mn  0.50301521  0.99752200  0.10536605     1.18400
C65         C  0.62718319  0.11290514  0.12844997     0.99900
C66         C  0.62427860  0.87979786  0.13115892     1.00600
N67         N  0.40292441  0.06287958  0.43382177    -0.04600
N68         N  0.36433146  0.09618803  0.41934026    -0.60900
N69         N  0.43675162  0.93940989  0.39663837    -0.03400
N70         N  0.42182050  0.90799131  0.35588851    -0.61500
N71         N  0.39938639  0.94074977  0.43426478    -0.04100
N72         N  0.35855144  0.91026986  0.41968499    -0.61100
N73         N  0.44026642  0.06154111  0.39618388    -0.03000
N74         N  0.42761645  0.09390961  0.35556705    -0.61800
Mn75       Mn  0.40308023  0.99847562  0.00020409     1.10700
C76         C  0.38060313  0.11566669  0.37090653     1.01200
C77         C  0.37339079  0.88969616  0.37116610     1.01200
N78         N  0.60220573  0.93546874  0.43682111    -0.04100
N79         N  0.64069203  0.90118429  0.42477195    -0.59400
N80         N  0.56834526  0.05844180  0.39722357    -0.03400
N81         N  0.58230090  0.09120887  0.35744760    -0.56200
N82         N  0.60521381  0.05811035  0.43551091    -0.04700
N83         N  0.64489354  0.09063368  0.42232512    -0.59000
N84         N  0.56555375  0.93564087  0.39833294    -0.03700
N85         N  0.57869291  0.90143728  0.35929613    -0.56200
Mn86       Mn  0.60657216  0.99500249  0.00285799     1.20200
Mn87       Mn  0.50278806  0.99865072  0.39637861     1.10100
Cl88       Cl  0.50466495  0.99708736  0.00144284    -0.84200
C89         C  0.62521104  0.87986101  0.37676227     0.98200
C90         C  0.62974736  0.11135932  0.37389905     0.98000
N91         N  0.94187867  0.60363002  0.06188595    -0.04300
N92         N  0.91006999  0.64407058  0.07503481    -0.56400
N93         N  0.06158790  0.56302993  0.10234503    -0.04000
N94         N  0.09395011  0.57587790  0.14285233    -0.58600
N95         N  0.06319944  0.60025817  0.06429646    -0.03600
N96         N  0.09670701  0.63895365  0.07830167    -0.56400
N97         N  0.94028500  0.56612170  0.09967153    -0.03300
N98         N  0.90735900  0.58040990  0.13899292    -0.58900
C99         C  0.88843661  0.62865111  0.12280672     0.97900
C100        C  0.11594948  0.62287307  0.12694764     0.97600
N101        N  0.05837203  0.39595061  0.06594792    -0.04500
N102        N  0.08961049  0.35558917  0.08065451    -0.57000
N103        N  0.93710468  0.43675199  0.10061578    -0.02600
N104        N  0.90402315  0.42371444  0.14023341    -0.58300
N105        N  0.93710692  0.39906019  0.06283781    -0.04500
N106        N  0.90403995  0.35984203  0.07610630    -0.57300
N107        N  0.05840618  0.43364831  0.10375087    -0.02300
N108        N  0.08966753  0.41953031  0.14472591    -0.58400
Mn109      Mn  0.99931181  0.49997068  0.10224918     1.18400
C110        C  0.10923284  0.37110527  0.12949548     0.99900
C111        C  0.88326364  0.37610773  0.12400446     1.00600
N112        N  0.06658275  0.59959618  0.43679873    -0.04600
N113        N  0.09861653  0.63961331  0.42329701    -0.60900
N114        N  0.94595397  0.56279456  0.39598951    -0.03400
N115        N  0.91514322  0.57710160  0.35479660    -0.61500
N116        N  0.94549892  0.60023203  0.43404348    -0.04100
N117        N  0.91431484  0.64057279  0.41934503    -0.61100
N118        N  0.06697759  0.56213933  0.39877011    -0.03000
N119        N  0.09931719  0.57604943  0.35886638    -0.61800
Mn120      Mn  0.00376768  0.60249934  0.99779243     1.10700
C121        C  0.11919193  0.62398836  0.37506615     1.01200
C122        C  0.89532360  0.62529374  0.37023834     1.01200
N123        N  0.94448186  0.39574297  0.43318733    -0.04100
N124        N  0.91235142  0.35612666  0.41843201    -0.59400
N125        N  0.06645585  0.43326467  0.39848267    -0.03400
N126        N  0.09974939  0.41994800  0.35915459    -0.56200
N127        N  0.06562227  0.39558863  0.43606737    -0.04700
N128        N  0.09834569  0.35600176  0.42290722    -0.59000
N129        N  0.94531654  0.43335306  0.39549093    -0.03700
N130        N  0.91376492  0.41989460  0.35450334    -0.56200
Mn131      Mn  0.99886234  0.39683910  0.99898259     1.20200
Mn132      Mn  0.00613041  0.49784214  0.39659637     1.10100
Cl133      Cl  0.00127068  0.49964505  0.99847296    -0.84200
C134        C  0.89314804  0.37203836  0.36971028     0.98200
C135        C  0.11972168  0.37213965  0.37533596     0.98000
C136        C  0.26390366  0.26394431  0.19370721     0.47300
H137        H  0.26092396  0.26300606  0.14860730    -0.01800
C138        C  0.27162349  0.26635738  0.29899127     0.47300
H139        H  0.27488092  0.26788379  0.34406203    -0.01800
C140        C  0.30370234  0.30546737  0.21493124    -0.15500
C141        C  0.21172795  0.27992541  0.22191566    -0.15200
C142        C  0.28385677  0.21079707  0.21878719    -0.15600
C143        C  0.30868913  0.30607243  0.27015956    -0.15600
C144        C  0.21587273  0.28104397  0.27756510    -0.15100
C145        C  0.28719480  0.21205705  0.27449525    -0.15500
C146        C  0.73041945  0.27128367  0.20013333     0.47300
H147        H  0.72635894  0.27369881  0.15517959    -0.01800
C148        C  0.73860173  0.26618557  0.30532838     0.47300
H149        H  0.74250822  0.26409640  0.35028118    -0.01800
C150        C  0.69462080  0.31127386  0.23040793    -0.15500
C151        C  0.71447991  0.21640889  0.22364136    -0.15200
C152        C  0.78646159  0.28463471  0.22120471    -0.15600
C153        C  0.69881828  0.30875595  0.28561190    -0.15600
C154        C  0.71830486  0.21377393  0.27923559    -0.15100
C155        C  0.79080326  0.28211668  0.27680538    -0.15500
C156        C  0.26583028  0.73526283  0.19673042     0.47300
H157        H  0.26588547  0.73392817  0.15153916    -0.01800
C158        C  0.26659884  0.73794962  0.30233824     0.47300
H159        H  0.26718360  0.73865386  0.34753806    -0.01800
C160        C  0.30782235  0.69869130  0.22247302    -0.15500
C161        C  0.27932527  0.79095934  0.22045662    -0.15200
C162        C  0.21341003  0.71628861  0.22228487    -0.15600
C163        C  0.30842435  0.70040046  0.27787151    -0.15600
C164        C  0.27950965  0.79236248  0.27633915    -0.15100
C165        C  0.21381759  0.71758352  0.27804211    -0.15500
C166        C  0.73323995  0.72696222  0.20165606     0.47300
H167        H  0.72941295  0.72610216  0.15661143    -0.01800
C168        C  0.74155746  0.72782107  0.30689841     0.47300
H169        H  0.74493601  0.72839374  0.35196989    -0.01800
C170        C  0.69990572  0.68364667  0.22996169    -0.15500
C171        C  0.79021222  0.71636121  0.22214193    -0.15200
C172        C  0.71392970  0.77941797  0.22738221    -0.15600
C173        C  0.70545968  0.68291823  0.28538968    -0.15600
C174        C  0.79456151  0.71675946  0.27788864    -0.15100
C175        C  0.71746919  0.77985211  0.28297501    -0.15500
C176        C  0.17616715  0.68451365  0.19031609    -0.11500
C177        C  0.14875209  0.65618811  0.16157679    -0.13000
C178        C  0.17740401  0.68664715  0.31141771    -0.11500
C179        C  0.15084445  0.65834483  0.34071079    -0.11900
C180        C  0.15243547  0.33840032  0.34147492    -0.11500
C181        C  0.17952261  0.31072139  0.31207799    -0.13000
C182        C  0.17141678  0.30978718  0.19162042    -0.11500
C183        C  0.14233744  0.33744394  0.16379533    -0.13000
C184        C  0.85035081  0.34250599  0.15797629    -0.11500
C185        C  0.82305090  0.31467740  0.18707583    -0.13000
C186        C  0.86018880  0.33876502  0.33518521    -0.11500
C187        C  0.83123097  0.31125574  0.30723877    -0.13000
C188        C  0.86380730  0.65952778  0.33540732    -0.11500
C189        C  0.83559497  0.68750758  0.30725810    -0.13000
C190        C  0.82795011  0.68921989  0.18671821    -0.11500
C191        C  0.85569862  0.66275826  0.15662763    -0.13000
C192        C  0.66314329  0.14531042  0.34047865    -0.11500
C193        C  0.68991050  0.17433685  0.31189976    -0.13000
C194        C  0.68516117  0.17792548  0.19060189    -0.11500
C195        C  0.65897056  0.14841311  0.16186575    -0.13000
C196        C  0.34508097  0.14714824  0.15861884    -0.11500
C197        C  0.31565944  0.17424020  0.18625351    -0.13000
C198        C  0.31919994  0.17499144  0.30654306    -0.11500
C199        C  0.34744758  0.14800442  0.33570199    -0.13000
C200        C  0.68281515  0.81739002  0.19546171    -0.11500
C201        C  0.65599952  0.84575553  0.16618778    -0.13000
C202        C  0.68692647  0.81672212  0.31661442    -0.11500
C203        C  0.65864037  0.84517269  0.34425179    -0.13000
C204        C  0.30996556  0.83129510  0.30779991    -0.11500
C205        C  0.33854351  0.85858058  0.33642852    -0.13000
C206        C  0.31055527  0.82792648  0.18800311    -0.11500
C207        C  0.34009127  0.85443565  0.16007869    -0.13000
C208        C  0.34985098  0.61772981  0.31030661    -0.14600
C209        C  0.34622652  0.67134400  0.31210331    -0.29800
H210        H  0.32496980  0.59438120  0.28281145     0.14400
H211        H  0.36623725  0.69406192  0.34393755     0.15000
C212        C  0.33002322  0.62736516  0.15955405    -0.14600
C213        C  0.34632841  0.66879116  0.18976777    -0.29800
H214        H  0.28915573  0.61340105  0.16185242     0.14400
H215        H  0.38769260  0.68133783  0.19022295     0.15000
C216        C  0.68249951  0.64275562  0.32266330    -0.14600
C217        C  0.63212774  0.62612488  0.31802403    -0.29800
H218        H  0.70513688  0.63276284  0.35894201     0.14400
H219        H  0.60676102  0.64195837  0.28614619     0.15000
C220        C  0.62651469  0.66746991  0.16845102    -0.14600
C221        C  0.66634433  0.64720587  0.19824386    -0.29800
H222        H  0.61534200  0.70956223  0.17225310     0.14400
H223        H  0.67623080  0.60468511  0.19704313     0.15000
C224        C  0.67031166  0.34494193  0.32281255    -0.14600
C225        C  0.65024411  0.32613620  0.36909679    -0.29800
H226        H  0.66364597  0.38649554  0.31101509     0.14400
H227        H  0.65192340  0.28343795  0.37819899     0.15000
C228        C  0.67571093  0.38223054  0.16631485    -0.14600
C229        C  0.65725761  0.34604923  0.20136513    -0.29800
H230        H  0.71807139  0.39117102  0.16445384     0.14400
H231        H  0.61478297  0.33873494  0.20557799     0.15000
C232        C  0.37539338  0.32158023  0.33949187    -0.14600
C233        C  0.34410583  0.34189863  0.30062762    -0.29800
H234        H  0.38041551  0.27836257  0.34355968     0.14400
H235        H  0.34127136  0.38500260  0.29404743     0.15000
C236        C  0.38427060  0.34012885  0.17233237    -0.14600
C237        C  0.33135094  0.34163780  0.17799290    -0.29800
H238        H  0.40840093  0.31273867  0.19640651     0.14400
H239        H  0.30678869  0.36509030  0.15039575     0.15000
N240        N  0.59042492  0.44794387  0.57707478    -0.04300
N241        N  0.62498894  0.44616123  0.61748688    -0.56400
N242        N  0.58172495  0.41226742  0.94104826    -0.04000
N243        N  0.59587547  0.37795372  0.90295486    -0.58600
N244        N  0.61270866  0.45484325  0.94037829    -0.03600
N245        N  0.64920449  0.45026004  0.90214440    -0.56400
N246        N  0.55470464  0.40952393  0.58196413    -0.03300
N247        N  0.56486854  0.38007100  0.62518627    -0.58900
C248        C  0.60828282  0.40394840  0.64724340     0.97900
C249        C  0.63769317  0.40237273  0.87893472     0.97600
N250        N  0.41707460  0.42301548  0.94062901    -0.04500
N251        N  0.38413324  0.40857155  0.90163143    -0.57000
N252        N  0.42859255  0.40350236  0.57233629    -0.02600
N253        N  0.41563748  0.37510160  0.61557805    -0.58300
N254        N  0.39023144  0.43744620  0.56029848    -0.04500
N255        N  0.35046015  0.43311491  0.59472516    -0.57300
N256        N  0.45952521  0.39206238  0.94086309    -0.02300
N257        N  0.45670149  0.35598990  0.90151575    -0.58400
Mn258      Mn  0.49672680  0.39372745  0.51726551     1.18400
C259        C  0.40948016  0.36699959  0.87755775     0.99900
C260        C  0.36706538  0.39470144  0.62920978     1.00600
N261        N  0.59096188  0.57836987  0.93908584    -0.04600
N262        N  0.62251368  0.59000541  0.89824303    -0.60900
N263        N  0.54787140  0.60590031  0.54984017    -0.03400
N264        N  0.55529105  0.64753816  0.58245384    -0.61500
N265        N  0.58609541  0.57037895  0.55656491    -0.04100
N266        N  0.61964616  0.58621454  0.59452593    -0.61100
N267        N  0.54898561  0.60994945  0.93905073    -0.03000
N268        N  0.55102224  0.64404753  0.89812833    -0.61800
Mn269      Mn  0.60392402  0.51788617  0.00157852     1.10700
C270        C  0.59694729  0.63071636  0.87301199     1.01200
C271        C  0.59979535  0.63410993  0.61045725     1.01200
N272        N  0.38544662  0.55905706  0.54120939    -0.04100
N273        N  0.34678987  0.56922471  0.57568330    -0.59400
N274        N  0.42696990  0.58958917  0.93863764    -0.03400
N275        N  0.41315577  0.62246452  0.89917818    -0.56200
N276        N  0.39599162  0.54696743  0.93886343    -0.04700
N277        N  0.35979873  0.55020263  0.90003414    -0.59000
N278        N  0.42164500  0.59725620  0.54243456    -0.03700
N279        N  0.40861595  0.63441183  0.57840017    -0.56200
Mn280      Mn  0.39273506  0.48885767  0.48923761     1.20200
Mn281      Mn  0.48776525  0.60243520  0.00125957     1.10100
Cl282      Cl  0.49302603  0.49425993  0.49923175    -0.84200
C283        C  0.36203527  0.61583994  0.59870819     0.98200
C284        C  0.37157477  0.59712528  0.87531972     0.98000
N285        N  0.39854249  0.94132080  0.56545464    -0.04300
N286        N  0.35821528  0.90999864  0.57950421    -0.56400
N287        N  0.43891843  0.06278247  0.60280454    -0.04000
N288        N  0.42539468  0.09493148  0.64334921    -0.58600
N289        N  0.40196884  0.06352330  0.56459872    -0.03600
N290        N  0.36272278  0.09618695  0.57858191    -0.56400
N291        N  0.43563200  0.94071872  0.60352943    -0.03300
N292        N  0.42118484  0.90901991  0.64397968    -0.58900
C293        C  0.37321074  0.88974372  0.62817899     0.97900
C294        C  0.37827610  0.11591850  0.62729062     0.97600
N295        N  0.60411058  0.05851606  0.56628087    -0.04500
N296        N  0.64456939  0.08949605  0.58075320    -0.57000
N297        N  0.56350241  0.93725850  0.60399117    -0.02600
N298        N  0.57549840  0.90365895  0.64375212    -0.58300
N299        N  0.60088709  0.93632339  0.56644998    -0.04500
N300        N  0.63887976  0.90201658  0.57997878    -0.57300
N301        N  0.56678574  0.05945846  0.60390720    -0.02300
N302        N  0.58123782  0.09114329  0.64456001    -0.58400
Mn303      Mn  0.50124715  0.00008617  0.60414531     1.18400
C304        C  0.62939988  0.10992933  0.62920052     0.99900
C305        C  0.62218119  0.88160948  0.62781586     1.00600
N306        N  0.40455859  0.05911894  0.93532642    -0.04600
N307        N  0.36444661  0.09062088  0.92130782    -0.60900
N308        N  0.44101448  0.93663757  0.89784603    -0.03400
N309        N  0.42741593  0.90369879  0.85790811    -0.61500
N310        N  0.40382967  0.93710202  0.93558548    -0.04100
N311        N  0.36433771  0.90456671  0.92201421    -0.61100
N312        N  0.44152309  0.05899105  0.89731637    -0.03000
N313        N  0.42679896  0.09042466  0.85657265    -0.61800
Mn314      Mn  0.40012591  0.00210939  0.49950879     1.10700
C315        C  0.37907120  0.11032007  0.87258131     1.01200
C316        C  0.37993591  0.88365136  0.87395603     1.01200
N317        N  0.60545438  0.93365049  0.93721241    -0.04100
N318        N  0.64406928  0.89995605  0.92358391    -0.59400
N319        N  0.57107772  0.05705164  0.89888169    -0.03400
N320        N  0.58570480  0.08925926  0.85887180    -0.56200
N321        N  0.60813366  0.05601190  0.93703972    -0.04700
N322        N  0.64846739  0.08757073  0.92353765    -0.59000
N323        N  0.56862270  0.93479886  0.89886953    -0.03700
N324        N  0.58148703  0.90187064  0.85872973    -0.56200
Mn325      Mn  0.60374492  0.99722828  0.50124600     1.20200
Mn326      Mn  0.50559719  0.99709166  0.89752177     1.10100
Cl327      Cl  0.50193477  0.99953304  0.50029278    -0.84200
C328        C  0.62817539  0.88004869  0.87494931     0.98200
C329        C  0.63364542  0.10841909  0.87508709     0.98000
N330        N  0.94288961  0.59938067  0.56446470    -0.04300
N331        N  0.90967569  0.63877032  0.57689339    -0.56400
N332        N  0.06348889  0.56177409  0.60532088    -0.04000
N333        N  0.09599584  0.57478106  0.64570845    -0.58600
N334        N  0.06434012  0.59924637  0.56751742    -0.03600
N335        N  0.09742676  0.63833268  0.58157215    -0.56400
N336        N  0.94199510  0.56197027  0.60233474    -0.03300
N337        N  0.90814377  0.57536054  0.64120398    -0.58900
C338        C  0.88795876  0.62293564  0.62438599     0.97900
C339        C  0.11723030  0.62224515  0.63001309     0.97600
N340        N  0.06388722  0.39531615  0.56614878    -0.04500
N341        N  0.09784569  0.35669199  0.57917105    -0.57000
N342        N  0.94144984  0.43286292  0.60197712    -0.02600
N343        N  0.90711604  0.42026423  0.64061877    -0.58300
N344        N  0.94180432  0.39537608  0.56398627    -0.04500
N345        N  0.90770615  0.35663173  0.57623664    -0.57300
N346        N  0.06344164  0.43279075  0.60413423    -0.02300
N347        N  0.09706319  0.42028872  0.64361718    -0.58400
Mn348      Mn  0.00255975  0.49727299  0.60427103     1.18400
C349        C  0.11858464  0.37313408  0.62720128     0.99900
C350        C  0.88599288  0.37304432  0.62375983     1.00600
N351        N  0.06581788  0.59973561  0.93398641    -0.04600
N352        N  0.10035581  0.63788047  0.92138620    -0.60900
N353        N  0.94411046  0.56535618  0.89344442    -0.03400
N354        N  0.91219444  0.57878744  0.85284094    -0.61500
N355        N  0.94430254  0.60328386  0.93096366    -0.04100
N356        N  0.91250818  0.64325191  0.91643025    -0.61100
N357        N  0.06552187  0.56200148  0.89626364    -0.03000
N358        N  0.09981846  0.57386656  0.85735439    -0.61800
Mn359      Mn  0.00484753  0.60024446  0.50080680     1.10700
C360        C  0.12164035  0.62085575  0.87395142     1.01200
C361        C  0.89245649  0.62709255  0.86798401     1.01200
N362        N  0.93917024  0.39919503  0.93263582    -0.04100
N363        N  0.90531232  0.36077889  0.91871637    -0.59400
N364        N  0.06170501  0.43313328  0.89674481    -0.03400
N365        N  0.09384673  0.41845643  0.85689952    -0.56200
N366        N  0.06039815  0.39579817  0.93469383    -0.04700
N367        N  0.09163919  0.35507921  0.92117954    -0.59000
N368        N  0.94060488  0.43662409  0.89479897    -0.03700
N369        N  0.90777973  0.42429281  0.85455628    -0.56200
Mn370      Mn  0.00386755  0.39469390  0.49992112     1.20200
Mn371      Mn  0.00300150  0.49926561  0.89467674     1.10100
Cl372      Cl  0.00428306  0.49751860  0.50038784    -0.84200
C373        C  0.88571600  0.37734086  0.87036855     0.98200
C374        C  0.11257622  0.37012943  0.87300496     0.98000
C375        C  0.27216838  0.26615163  0.70327966     0.47300
H376        H  0.27632448  0.26965075  0.65842999    -0.01800
C377        C  0.26318542  0.25837339  0.80808610     0.47300
H378        H  0.25921765  0.25528007  0.85298858    -0.01800
C379        C  0.31084074  0.30239529  0.73513070    -0.15500
C380        C  0.21694886  0.28227252  0.72433392    -0.15200
C381        C  0.28464541  0.20982630  0.72495794    -0.15600
C382        C  0.30565932  0.29849910  0.79023100    -0.15600
C383        C  0.21226171  0.27833437  0.77969326    -0.15100
C384        C  0.28096089  0.20573810  0.78051210    -0.15500
C385        C  0.73108905  0.26382468  0.69711325     0.47300
H386        H  0.72933375  0.26303755  0.65195505    -0.01800
C387        C  0.73434316  0.26645048  0.80271947     0.47300
H388        H  0.73535380  0.26793772  0.84788730    -0.01800
C389        C  0.68860943  0.30003799  0.72262614    -0.15500
C390        C  0.72053635  0.20907009  0.72360072    -0.15200
C391        C  0.78405963  0.28545427  0.72000846    -0.15600
C392        C  0.69092269  0.30206837  0.77799674    -0.15600
C393        C  0.72185933  0.21027510  0.77948292    -0.15100
C394        C  0.78565675  0.28658564  0.77574154    -0.15500
C395        C  0.27034139  0.73468122  0.69683740     0.47300
H396        H  0.26782469  0.73670393  0.65177661    -0.01800
C397        C  0.27599003  0.73026846  0.80215030     0.47300
H398        H  0.27863775  0.72809884  0.84722559    -0.01800
C399        C  0.31488929  0.69788434  0.71795692    -0.15500
C400        C  0.28365390  0.78903998  0.72328789    -0.15200
C401        C  0.21958130  0.71256974  0.72358772    -0.15600
C402        C  0.31763764  0.69544987  0.77326520    -0.15600
C403        C  0.28649174  0.78665277  0.77907793    -0.15100
C404        C  0.22251242  0.71051545  0.77913302    -0.15500
C405        C  0.73142976  0.72756453  0.69394973     0.47300
H406        H  0.73024861  0.72825355  0.64877578    -0.01800
C407        C  0.73402705  0.72539132  0.79960673     0.47300
H408        H  0.73453781  0.72393905  0.84478279    -0.01800
C409        C  0.69449535  0.68528109  0.71871735    -0.15500
C410        C  0.78663063  0.71336465  0.71762823    -0.15200
C411        C  0.71309865  0.78027732  0.72067661    -0.15600
C412        C  0.69663993  0.68375185  0.77401098    -0.15600
C413        C  0.78797065  0.71277577  0.77345820    -0.15100
C414        C  0.71451133  0.77918874  0.77642432    -0.15500
C415        C  0.18069841  0.68248173  0.69178946    -0.11500
C416        C  0.15153833  0.65503690  0.66385510    -0.13000
C417        C  0.18568649  0.68009283  0.81264667    -0.11500
C418        C  0.15688510  0.65299919  0.84095520    -0.11900
C419        C  0.14470681  0.33560398  0.83918560    -0.11500
C420        C  0.17277719  0.30777810  0.81080916    -0.13000
C421        C  0.18066567  0.31295456  0.69013803    -0.11500
C422        C  0.15279225  0.34033315  0.66094358    -0.13000
C423        C  0.85060678  0.34057350  0.65657385    -0.11500
C424        C  0.82150007  0.31430755  0.68552438    -0.13000
C425        C  0.85223594  0.34472367  0.83588453    -0.11500
C426        C  0.82404512  0.31728978  0.80714035    -0.13000
C427        C  0.85856270  0.65975018  0.83382884    -0.11500
C428        C  0.82880906  0.68557449  0.80516356    -0.13000
C429        C  0.82496695  0.68432339  0.68466660    -0.11500
C430        C  0.85373371  0.65654194  0.65697959    -0.13000
C431        C  0.66752568  0.14192418  0.84168009    -0.11500
C432        C  0.69429923  0.17093438  0.81307358    -0.13000
C433        C  0.69159164  0.16897612  0.69262192    -0.11500
C434        C  0.66374678  0.14124256  0.66390885    -0.13000
C435        C  0.34427047  0.14725316  0.66219997    -0.11500
C436        C  0.31587045  0.17350743  0.69164813    -0.13000
C437        C  0.31339516  0.16799656  0.81123232    -0.11500
C438        C  0.34375215  0.14134463  0.83841317    -0.13000
C439        C  0.68221498  0.81880093  0.68963361    -0.11500
C440        C  0.65449588  0.84738285  0.66169812    -0.13000
C441        C  0.68647371  0.81734316  0.81088683    -0.11500
C442        C  0.66058837  0.84598120  0.84070291    -0.13000
C443        C  0.31718735  0.82438604  0.81135057    -0.11500
C444        C  0.34585307  0.85150723  0.83981258    -0.13000
C445        C  0.31209211  0.82899800  0.69132168    -0.11500
C446        C  0.33923893  0.85732996  0.66245363    -0.13000
C447        C  0.33773487  0.62190507  0.83401786    -0.14600
C448        C  0.35569854  0.66253041  0.80371645    -0.29800
H449        H  0.29651430  0.60920551  0.83097544     0.14400
H450        H  0.39722515  0.67444900  0.80464658     0.15000
C451        C  0.32917920  0.64420571  0.63774252    -0.14600
C452        C  0.35015187  0.66834561  0.68112335    -0.29800
H453        H  0.28612201  0.64265507  0.63215973     0.14400
H454        H  0.39254847  0.66519749  0.69016782     0.15000
C455        C  0.66667458  0.64623976  0.80735038    -0.14600
C456        C  0.61985815  0.66103789  0.82815234    -0.29800
H457        H  0.68683884  0.60991954  0.82069570     0.14400
H458        H  0.60084450  0.69823713  0.81536897     0.15000
C459        C  0.62752975  0.66978305  0.64845041    -0.14600
C460        C  0.66098342  0.64959476  0.68557720    -0.29800
H461        H  0.62175491  0.71297467  0.64501335     0.14400
H462        H  0.66383228  0.60643519  0.69193952     0.15000
C463        C  0.65400074  0.33257587  0.81193369    -0.14600
C464        C  0.67098333  0.37652510  0.83795654    -0.29800
H465        H  0.61374018  0.31739582  0.81721366     0.14400
H466        H  0.71080919  0.39217502  0.83070918     0.15000
C467        C  0.64120918  0.37932303  0.68941697    -0.14600
C468        C  0.64746216  0.32594021  0.68942051    -0.29800
H469        H  0.66614594  0.40463697  0.71478217     0.14400
H470        H  0.62734432  0.30132936  0.65929690     0.15000
C471        C  0.38546572  0.33411749  0.83484630    -0.14600
C472        C  0.33250107  0.33318452  0.82966132    -0.29800
H473        H  0.41055478  0.30814752  0.81013034     0.14400
H474        H  0.30735857  0.35492802  0.85821715     0.15000
C475        C  0.33115149  0.36971200  0.66809091    -0.14600
C476        C  0.34886756  0.33756833  0.70734958    -0.29800
H477        H  0.28862128  0.37488641  0.66183496     0.14400
H478        H  0.39110317  0.33394615  0.71596187     0.15000
loop_ 
_geom_bond_atom_site_label_1 
_geom_bond_atom_site_label_2 
_geom_bond_distance 
_geom_bond_site_symmetry_2 
_ccdc_geom_bond_type 
N1            N2   1.318       .  A
N1            N7   1.314       .  A
N1         Mn269   2.175       .  S
N2            C9   1.348       .  A
N3            N5   1.315       .  A
N3            N4   1.316       .  A
N3         Mn258   2.176       .  S
N4           C10   1.345       .  A
N5            N6   1.320       .  A
N5          Mn30   2.202       .  S
N6           C10   1.354       .  A
N7            N8   1.317       .  A
N7          Mn19   2.191       .  S
N8            C9   1.352       .  A
C9          C228   1.457       .  S
C10         C225   1.456       .  S
N11          N17   1.314       .  A
N11          N12   1.315       .  A
N11        Mn280   2.171       .  S
N12          C20   1.349       .  A
N13          N14   1.320       .  A
N13          N15   1.314       .  A
N13         Mn19   2.185       .  S
N14          C21   1.351       .  A
N15          N16   1.313       .  A
N15         Mn41   2.178       .  S
N16          C21   1.349       .  A
N17          N18   1.319       .  A
N17        Mn258   2.193       .  S
N18          C20   1.351       .  A
Mn19        N242   2.183   1_554  S
Mn19        N256   2.187   1_554  S
Mn19        Cl43   2.533       .  S
C20         C232   1.455       .  S
C21         C236   1.459       .  S
N22          N23   1.323       .  A
N22          N28   1.315       .  A
N22         Mn30   2.212       .  S
N23          C31   1.357       .  A
N24          N26   1.314       .  A
N24          N25   1.320       .  A
N24        Mn281   2.192       .  S
N25          C32   1.352       .  A
N26          N27   1.314       .  A
N26        Mn269   2.177       .  S
N27          C32   1.348       .  A
N28          N29   1.314       .  A
N28         Mn42   2.168       .  S
N29          C31   1.343       .  A
Mn30        N240   2.193       .  S
Mn30        N265   2.178       .  S
Mn30       Cl282   2.531       .  S
C31         C217   1.458       .  S
C32         C220   1.456       .  S
N33          N34   1.318       .  A
N33          N39   1.314       .  A
N33         Mn41   2.178       .  S
N34          C44   1.348       .  A
N35          N36   1.314       .  A
N35          N37   1.312       .  A
N35         Mn42   2.181       .  S
N36          C45   1.349       .  A
N37          N38   1.319       .  A
N37        Mn280   2.174       .  S
N38          C45   1.350       .  A
N39          N40   1.317       .  A
N39        Mn281   2.192       .  S
N40          C44   1.352       .  A
Mn41        N250   2.176   1_554  S
Mn41        N276   2.185   1_554  S
Mn41        Cl43   2.533       .  S
Mn42        N263   2.196       .  S
Mn42        N278   2.193       .  S
Mn42       Cl282   2.531       .  S
Cl43       Mn269   2.531       .  S
Cl43       Mn281   2.537       .  S
C44         C212   1.458       .  S
C45         C208   1.457       .  S
N46          N47   1.321       .  A
N46          N52   1.317       .  A
N46         Mn75   2.202       .  S
N47          C54   1.350       .  A
N48          N50   1.318       .  A
N48          N49   1.323       .  A
N48         Mn64   2.214   1_545  S
N49          C55   1.353       .  A
N50          N51   1.321       .  A
N50         Mn75   2.203   1_545  S
N51          C55   1.350       .  A
N52          N53   1.323       .  A
N52         Mn64   2.212       .  S
N53          C54   1.352       .  A
C54         C207   1.441       .  S
C55         C196   1.441       .  S
N56          N62   1.319       .  A
N56          N57   1.323       .  A
N56         Mn86   2.218   1_545  S
N57          C65   1.353       .  A
N58          N59   1.323       .  A
N58          N60   1.319       .  A
N58         Mn64   2.210       .  S
N59          C66   1.351       .  A
N60          N61   1.324       .  A
N60         Mn86   2.225       .  S
N61          C66   1.353       .  A
N62          N63   1.322       .  A
N62         Mn64   2.209   1_545  S
N63          C65   1.351       .  A
Mn64        Cl88   2.558       .  S
C65         C195   1.444       .  S
C66         C201   1.447       .  S
N67          N68   1.323       .  A
N67          N73   1.319       .  A
N67        Mn314   2.217       .  S
N68          C76   1.352       .  A
N69          N71   1.319       .  A
N69          N70   1.323       .  A
N69         Mn87   2.217       .  S
N70          C77   1.352       .  A
N71          N72   1.322       .  A
N71        Mn314   2.212   1_565  S
N72          C77   1.351       .  A
N73          N74   1.323       .  A
N73         Mn87   2.215   1_545  S
N74          C76   1.352       .  A
Mn75        N306   2.199   1_564  S
Mn75        N310   2.201   1_554  S
Mn75        Cl88   2.548       .  S
C76         C199   1.445       .  S
C77         C205   1.444       .  S
N78          N79   1.322       .  A
N78          N84   1.318       .  A
N78        Mn325   2.205       .  S
N79          C89   1.350       .  A
N80          N81   1.323       .  A
N80          N82   1.319       .  A
N80         Mn87   2.217   1_545  S
N81          C90   1.352       .  A
N82          N83   1.324       .  A
N82        Mn325   2.219   1_545  S
N83          C90   1.353       .  A
N84          N85   1.324       .  A
N84         Mn87   2.221       .  S
N85          C89   1.354       .  A
Mn86        N317   2.219   1_554  S
Mn86        N321   2.222   1_564  S
Mn86        Cl88   2.557       .  S
Mn87       Cl327   2.557       .  S
Cl88       Mn326   2.557   1_554  S
C89         C203   1.445       .  S
C90         C192   1.448       .  S
N91          N92   1.324       .  A
N91          N97   1.319       .  A
N91        Mn120   2.216   1_654  S
N92          C99   1.352       .  A
N93          N95   1.319       .  A
N93          N94   1.322       .  A
N93        Mn109   2.213   1_455  S
N94         C100   1.352       .  A
N95          N96   1.322       .  A
N95        Mn120   2.212   1_554  S
N96         C100   1.351       .  A
N97          N98   1.322       .  A
N97        Mn109   2.214       .  S
N98          C99   1.351       .  A
C99         C191   1.444       .  S
C100        C177   1.443       .  S
N101        N107   1.319       .  A
N101        N102   1.324       .  A
N101       Mn131   2.221   1_454  S
N102        C110   1.353       .  A
N103        N104   1.323       .  A
N103        N105   1.318       .  A
N103       Mn109   2.215       .  S
N104        C111   1.352       .  A
N105        N106   1.322       .  A
N105       Mn131   2.210   1_554  S
N106        C111   1.351       .  A
N107        N108   1.324       .  A
N107       Mn109   2.218   1_455  S
N108        C110   1.353       .  A
Mn109      Cl133   2.554   1_654  S
C110        C183   1.450       .  S
C111        C184   1.444       .  S
N112        N113   1.323       .  A
N112        N118   1.319       .  A
N112       Mn359   2.212       .  S
N113        C121   1.352       .  A
N114        N116   1.319       .  A
N114        N115   1.323       .  A
N114       Mn132   2.210   1_655  S
N115        C122   1.351       .  A
N116        N117   1.322       .  A
N116       Mn359   2.214   1_655  S
N117        C122   1.351       .  A
N118        N119   1.322       .  A
N118       Mn132   2.211       .  S
N119        C121   1.351       .  A
Mn120       N351   2.215       .  S
Mn120       N355   2.217   1_455  S
Mn120      Cl133   2.558       .  S
C121        C179   1.443       .  S
C122        C188   1.444       .  S
N123        N124   1.322       .  A
N123        N129   1.319       .  A
N123       Mn370   2.214   1_655  S
N124        C134   1.351       .  A
N125        N126   1.321       .  A
N125        N127   1.318       .  A
N125       Mn132   2.207       .  S
N126        C135   1.351       .  A
N127        N128   1.322       .  A
N127       Mn370   2.209       .  S
N128        C135   1.351       .  A
N129        N130   1.323       .  A
N129       Mn132   2.213   1_655  S
N130        C134   1.352       .  A
Mn131       N362   2.213       .  S
Mn131       N366   2.213   1_655  S
Mn131      Cl133   2.557   1_655  S
Mn132      Cl372   2.555       .  S
Cl133      Mn371   2.555       .  S
C134        C186   1.443       .  S
C135        C180   1.439       .  S
C136        H137   1.112       .  S
C136        C142   1.543       .  S
C136        C141   1.535       .  S
C136        C140   1.526       .  S
C138        H139   1.112       .  S
C138        C144   1.538       .  S
C138        C143   1.533       .  S
C138        C145   1.528       .  S
C140        C143   1.365       .  D
C140        C237   1.457       .  S
C141        C144   1.373       .  D
C141        C182   1.459       .  S
C142        C145   1.373       .  D
C142        C197   1.450       .  S
C143        C233   1.462       .  S
C144        C181   1.448       .  S
C145        C198   1.455       .  S
C146        H147   1.112       .  S
C146        C152   1.533       .  S
C146        C151   1.537       .  S
C146        C150   1.533       .  S
C148        H149   1.112       .  S
C148        C154   1.537       .  S
C148        C153   1.533       .  S
C148        C155   1.540       .  S
C150        C153   1.364       .  D
C150        C229   1.462       .  S
C151        C154   1.373       .  D
C151        C194   1.453       .  S
C152        C155   1.374       .  D
C152        C185   1.454       .  S
C153        C224   1.469       .  S
C154        C193   1.457       .  S
C155        C187   1.452       .  S
C156        H157   1.112       .  S
C156        C162   1.534       .  S
C156        C161   1.539       .  S
C156        C160   1.529       .  S
C158        H159   1.112       .  S
C158        C164   1.533       .  S
C158        C163   1.528       .  S
C158        C165   1.537       .  S
C160        C163   1.364       .  D
C160        C213   1.461       .  S
C161        C164   1.376       .  D
C161        C206   1.450       .  S
C162        C165   1.372       .  D
C162        C176   1.452       .  S
C163        C209   1.459       .  S
C164        C204   1.454       .  S
C165        C178   1.452       .  S
C166        H167   1.113       .  S
C166        C172   1.528       .  S
C166        C171   1.537       .  S
C166        C170   1.533       .  S
C168        H169   1.112       .  S
C168        C174   1.535       .  S
C168        C173   1.530       .  S
C168        C175   1.545       .  S
C170        C173   1.371       .  D
C170        C221   1.460       .  S
C171        C174   1.376       .  D
C171        C190   1.453       .  S
C172        C175   1.371       .  D
C172        C200   1.455       .  S
C173        C216   1.476       .  S
C174        C189   1.452       .  S
C175        C202   1.453       .  S
C176        C177   1.210       .  T
C178        C179   1.210       .  T
C180        C181   1.208       .  T
C182        C183   1.214       .  T
C184        C185   1.211       .  T
C186        C187   1.210       .  T
C188        C189   1.210       .  T
C190        C191   1.211       .  T
C192        C193   1.213       .  T
C194        C195   1.210       .  T
C196        C197   1.209       .  T
C198        C199   1.211       .  T
C200        C201   1.212       .  T
C202        C203   1.211       .  T
C204        C205   1.211       .  T
C206        C207   1.209       .  T
C208        C209   1.337       .  D
C208        H210   1.086       .  S
C209        H211   1.086       .  S
C212        C213   1.332       .  D
C212        H214   1.084       .  S
C213        H215   1.083       .  S
C216        C217   1.334       .  D
C216        H218   1.086       .  S
C217        H219   1.084       .  S
C220        C221   1.337       .  D
C220        H222   1.087       .  S
C221        H223   1.086       .  S
C224        C225   1.332       .  D
C224        H226   1.087       .  S
C225        H227   1.086       .  S
C228        C229   1.332       .  D
C228        H230   1.087       .  S
C229        H231   1.086       .  S
C232        C233   1.336       .  D
C232        H234   1.087       .  S
C233        H235   1.087       .  S
C236        C237   1.336       .  D
C236        H238   1.087       .  S
C237        H239   1.087       .  S
N240        N241   1.318       .  A
N240        N246   1.316       .  A
N241        C248   1.349       .  A
N242        N244   1.313       .  A
N242        N243   1.315       .  A
N243        C249   1.350       .  A
N244        N245   1.319       .  A
N244       Mn269   2.182   1_556  S
N245        C249   1.350       .  A
N246        N247   1.317       .  A
N246       Mn258   2.188       .  S
N247        C248   1.352       .  A
C248        C467   1.460       .  S
C249        C464   1.459       .  S
N250        N256   1.314       .  A
N250        N251   1.314       .  A
N251        C259   1.350       .  A
N252        N253   1.320       .  A
N252        N254   1.314       .  A
N252       Mn258   2.197       .  S
N253        C260   1.355       .  A
N254        N255   1.315       .  A
N254       Mn280   2.170       .  S
N255        C260   1.345       .  A
N256        N257   1.320       .  A
N257        C259   1.350       .  A
Mn258      Cl282   2.541       .  S
C259        C471   1.459       .  S
C260        C475   1.456       .  S
N261        N262   1.314       .  A
N261        N267   1.313       .  A
N261       Mn269   2.178   1_556  S
N262        C270   1.350       .  A
N263        N265   1.314       .  A
N263        N264   1.321       .  A
N264        C271   1.353       .  A
N265        N266   1.315       .  A
N266        C271   1.348       .  A
N267        N268   1.319       .  A
N267       Mn281   2.179   1_556  S
N268        C270   1.350       .  A
C270        C456   1.458       .  S
C271        C459   1.462       .  S
N272        N273   1.314       .  A
N272        N278   1.314       .  A
N272       Mn280   2.169       .  S
N273        C283   1.344       .  A
N274        N275   1.317       .  A
N274        N276   1.314       .  A
N274       Mn281   2.188   1_556  S
N275        C284   1.351       .  A
N276        N277   1.319       .  A
N277        C284   1.350       .  A
N278        N279   1.319       .  A
N279        C283   1.354       .  A
Mn280      Cl282   2.530       .  S
C283        C451   1.449       .  S
C284        C447   1.460       .  S
N285        N286   1.324       .  A
N285        N291   1.319       .  A
N285       Mn314   2.221   1_565  S
N286        C293   1.353       .  A
N287        N289   1.319       .  A
N287        N288   1.322       .  A
N287       Mn303   2.208       .  S
N288        C294   1.350       .  A
N289        N290   1.322       .  A
N289       Mn314   2.211       .  S
N290        C294   1.351       .  A
N291        N292   1.323       .  A
N291       Mn303   2.211   1_565  S
N292        C293   1.351       .  A
C293        C446   1.447       .  S
C294        C435   1.440       .  S
N295        N301   1.319       .  A
N295        N296   1.322       .  A
N295       Mn325   2.207   1_545  S
N296        C304   1.350       .  A
N297        N298   1.322       .  A
N297        N299   1.318       .  A
N297       Mn303   2.209   1_565  S
N298        C305   1.352       .  A
N299        N300   1.321       .  A
N299       Mn325   2.210       .  S
N300        C305   1.351       .  A
N301        N302   1.322       .  A
N301       Mn303   2.210       .  S
N302        C304   1.350       .  A
Mn303      Cl327   2.556   1_545  S
C304        C434   1.439       .  S
C305        C440   1.441       .  S
N306        N307   1.321       .  A
N306        N312   1.319       .  A
N307        C315   1.348       .  A
N308        N310   1.318       .  A
N308        N309   1.322       .  A
N308       Mn326   2.210       .  S
N309        C316   1.351       .  A
N310        N311   1.321       .  A
N311        C316   1.350       .  A
N312        N313   1.325       .  A
N312       Mn326   2.225   1_545  S
N313        C315   1.354       .  A
Mn314      Cl327   2.554   1_545  S
C315        C438   1.444       .  S
C316        C444   1.438       .  S
N317        N318   1.324       .  A
N317        N323   1.319       .  A
N318        C328   1.353       .  A
N319        N320   1.323       .  A
N319        N321   1.320       .  A
N319       Mn326   2.218   1_545  S
N320        C329   1.352       .  A
N321        N322   1.324       .  A
N322        C329   1.353       .  A
N323        N324   1.322       .  A
N323       Mn326   2.213       .  S
N324        C328   1.350       .  A
Mn325      Cl327   2.554       .  S
C328        C442   1.445       .  S
C329        C431   1.449       .  S
N330        N331   1.322       .  A
N330        N336   1.319       .  A
N330       Mn359   2.210   1_655  S
N331        C338   1.350       .  A
N332        N334   1.319       .  A
N332        N333   1.323       .  A
N332       Mn348   2.215       .  S
N333        C339   1.352       .  A
N334        N335   1.323       .  A
N334       Mn359   2.216       .  S
N335        C339   1.352       .  A
N336        N337   1.323       .  A
N336       Mn348   2.213   1_655  S
N337        C338   1.352       .  A
C338        C430   1.442       .  S
C339        C416   1.446       .  S
N340        N346   1.318       .  A
N340        N341   1.323       .  A
N340       Mn370   2.216       .  S
N341        C349   1.352       .  A
N342        N343   1.323       .  A
N342        N344   1.318       .  A
N342       Mn348   2.217   1_655  S
N343        C350   1.352       .  A
N344        N345   1.324       .  A
N344       Mn370   2.218   1_655  S
N345        C350   1.353       .  A
N346        N347   1.323       .  A
N346       Mn348   2.214       .  S
N347        C349   1.352       .  A
Mn348      Cl372   2.557       .  S
C349        C422   1.446       .  S
C350        C423   1.449       .  S
N351        N352   1.323       .  A
N351        N357   1.318       .  A
N352        C360   1.352       .  A
N353        N355   1.318       .  A
N353        N354   1.322       .  A
N353       Mn371   2.210   1_655  S
N354        C361   1.351       .  A
N355        N356   1.324       .  A
N356        C361   1.353       .  A
N357        N358   1.323       .  A
N357       Mn371   2.212       .  S
N358        C360   1.352       .  A
Mn359      Cl372   2.554       .  S
C360        C418   1.445       .  S
C361        C427   1.445       .  S
N362        N363   1.322       .  A
N362        N368   1.319       .  A
N363        C373   1.351       .  A
N364        N365   1.322       .  A
N364        N366   1.319       .  A
N364       Mn371   2.208       .  S
N365        C374   1.350       .  A
N366        N367   1.323       .  A
N367        C374   1.352       .  A
N368        N369   1.322       .  A
N368       Mn371   2.208   1_655  S
N369        C373   1.351       .  A
Mn370      Cl372   2.557       .  S
C373        C425   1.441       .  S
C374        C419   1.442       .  S
C375        H376   1.112       .  S
C375        C381   1.532       .  S
C375        C380   1.533       .  S
C375        C379   1.536       .  S
C377        H378   1.113       .  S
C377        C383   1.537       .  S
C377        C382   1.526       .  S
C377        C384   1.539       .  S
C379        C382   1.366       .  D
C379        C476   1.466       .  S
C380        C383   1.371       .  D
C380        C421   1.455       .  S
C381        C384   1.374       .  D
C381        C436   1.449       .  S
C382        C472   1.460       .  S
C383        C420   1.451       .  S
C384        C437   1.454       .  S
C385        H386   1.112       .  S
C385        C391   1.538       .  S
C385        C390   1.534       .  S
C385        C389   1.530       .  S
C387        H388   1.112       .  S
C387        C393   1.540       .  S
C387        C392   1.530       .  S
C387        C394   1.534       .  S
C389        C392   1.364       .  D
C389        C468   1.465       .  S
C390        C393   1.376       .  D
C390        C433   1.448       .  S
C391        C394   1.372       .  D
C391        C424   1.457       .  S
C392        C463   1.460       .  S
C393        C432   1.458       .  S
C394        C426   1.449       .  S
C395        H396   1.112       .  S
C395        C401   1.537       .  S
C395        C400   1.535       .  S
C395        C399   1.535       .  S
C397        H398   1.112       .  S
C397        C403   1.537       .  S
C397        C402   1.532       .  S
C397        C404   1.535       .  S
C399        C402   1.364       .  D
C399        C452   1.464       .  S
C400        C403   1.376       .  D
C400        C445   1.457       .  S
C401        C404   1.370       .  D
C401        C415   1.455       .  S
C402        C448   1.464       .  S
C403        C443   1.448       .  S
C404        C417   1.454       .  S
C405        H406   1.112       .  S
C405        C411   1.536       .  S
C405        C410   1.542       .  S
C405        C409   1.530       .  S
C407        H408   1.112       .  S
C407        C413   1.532       .  S
C407        C412   1.530       .  S
C407        C414   1.535       .  S
C409        C412   1.362       .  D
C409        C460   1.467       .  S
C410        C413   1.374       .  D
C410        C429   1.451       .  S
C411        C414   1.373       .  D
C411        C439   1.450       .  S
C412        C455   1.454       .  S
C413        C428   1.454       .  S
C414        C441   1.453       .  S
C415        C416   1.212       .  T
C417        C418   1.211       .  T
C419        C420   1.209       .  T
C421        C422   1.212       .  T
C423        C424   1.213       .  T
C425        C426   1.209       .  T
C427        C428   1.211       .  T
C429        C430   1.209       .  T
C431        C432   1.213       .  T
C433        C434   1.207       .  T
C435        C436   1.208       .  T
C437        C438   1.211       .  T
C439        C440   1.209       .  T
C441        C442   1.211       .  T
C443        C444   1.207       .  T
C445        C446   1.212       .  T
C447        C448   1.336       .  D
C447        H449   1.083       .  S
C448        H450   1.083       .  S
C451        C452   1.331       .  D
C451        H453   1.089       .  S
C452        H454   1.089       .  S
C455        C456   1.334       .  D
C455        H457   1.086       .  S
C456        H458   1.087       .  S
C459        C460   1.338       .  D
C459        H461   1.087       .  S
C460        H462   1.087       .  S
C463        C464   1.334       .  D
C463        H465   1.086       .  S
C464        H466   1.087       .  S
C467        C468   1.337       .  D
C467        H469   1.083       .  S
C468        H470   1.084       .  S
C471        C472   1.334       .  D
C471        H473   1.088       .  S
C472        H474   1.088       .  S
C475        C476   1.331       .  D
C475        H477   1.085       .  S
C476        H478   1.084       .  S
