geometry optimzed in LAMMPS
_audit_creation_date              2020-11-30 
_audit_creation_method            'lammps2cif' 
_symmetry_space_group_name_H-M    'P1' 
_symmetry_Int_Tables_number       1 
_symmetry_cell_setting            triclinic 
loop_ 
_symmetry_equiv_pos_as_xyz 
  x,y,z 
_cell_length_a                    27.08933324 
_cell_length_b                    26.969719851661036 
_cell_length_c                    26.40989229966362 
_cell_angle_alpha                 87.77765938447165 
_cell_angle_beta                  90.11034273062707 
_cell_angle_gamma                 90.22400152284277 
loop_ 
_atom_site_label 
_atom_site_type_symbol 
_atom_site_fract_x 
_atom_site_fract_y 
_atom_site_fract_z 
_atom_site_charge 
C1          C  0.89065648  0.32860878  0.99514319     0.03300
C2          C  0.84071805  0.34196850  0.99519160    -0.12900
C3          C  0.82703520  0.39174504  0.99930567     0.00800
C4          C  0.86380772  0.42844868  0.00196555    -0.11400
C5          C  0.91391792  0.41538612  0.00149652     0.03300
C6          C  0.92708111  0.36531678  0.99894985    -0.10800
H7          H  0.81249956  0.31347881  0.99335910     0.08800
H8          H  0.85350319  0.46708687  0.00386259     0.06400
H9          H  0.96568964  0.35485884  0.00004274     0.06200
C10         C  0.82182282  0.39150706  0.49464320     0.03300
C11         C  0.83498717  0.34123616  0.49459901    -0.12900
C12         C  0.88481778  0.32746774  0.49223572     0.00800
C13         C  0.92144129  0.36448830  0.49110718    -0.11400
C14         C  0.90863545  0.41479435  0.49154178     0.03300
C15         C  0.85874931  0.42812338  0.49370973    -0.10800
H16         H  0.80651227  0.31299341  0.49752445     0.08800
H17         H  0.96005428  0.35409439  0.49031646     0.06400
H18         H  0.84865915  0.46695089  0.49419487     0.06200
C19         C  0.58736504  0.82194288  0.99657686     0.03300
C20         C  0.63701276  0.83712899  0.99677279    -0.12900
C21         C  0.64913340  0.88776404  0.99689406     0.00800
C22         C  0.61137251  0.92320996  0.99685857    -0.11400
C23         C  0.56174805  0.90828962  0.99579463     0.03300
C24         C  0.54994308  0.85770093  0.99573438    -0.10800
H25         H  0.66608216  0.80963426  0.99687434     0.08800
H26         H  0.62058956  0.96234113  0.99740579     0.06400
H27         H  0.51156988  0.84611494  0.99571003     0.06200
C28         C  0.59048578  0.82902713  0.48862002     0.03300
C29         C  0.64049807  0.84288792  0.48811645    -0.12900
C30         C  0.65411869  0.89293901  0.49043432     0.00800
C31         C  0.61751263  0.92945272  0.49221913    -0.11400
C32         C  0.56745664  0.91608420  0.49163831     0.03300
C33         C  0.55410373  0.86588738  0.48999168    -0.10800
H34         H  0.66886391  0.81479221  0.48598945     0.08800
H35         H  0.62798970  0.96813719  0.49443614     0.06400
H36         H  0.51541242  0.85547705  0.49043412     0.06200
Zn37       Zn  0.03786735  0.96362094  0.95785561     1.49700
Zn38       Zn  0.01340981  0.04024480  0.04303168     1.49400
Zn39       Zn  0.93321478  0.01858712  0.95697275     1.49100
Zn40       Zn  0.95861698  0.93533361  0.04414374     1.49500
O41         O  0.98550691  0.98942654  0.00045004    -1.84000
O42         O  0.10282804  0.99756834  0.97014255    -0.74600
O43         O  0.98060554  0.10576105  0.02868459    -0.74400
O44         O  0.94831910  0.00968044  0.88267498    -0.74000
O45         O  0.08639472  0.04957600  0.03078328    -0.74600
O46         O  0.02144355  0.97280193  0.88388456    -0.74200
O47         O  0.92539562  0.09236810  0.96861127    -0.74800
O48         O  0.88559679  0.92655149  0.03077506    -0.74200
O49         O  0.00434341  0.02264495  0.11723972    -0.75000
O50         O  0.86776809  0.98455578  0.97171001    -0.74400
O51         O  0.96736261  0.94911105  0.11862417    -0.74800
O52         O  0.99319417  0.87049872  0.03164294    -0.74700
O53         O  0.04815520  0.89046754  0.97212515    -0.74500
C54         C  0.11678849  0.03016103  0.00075133     0.77300
C55         C  0.94669197  0.12141859  0.99888094     0.77800
C56         C  0.98456768  0.99078966  0.85965391     0.76700
C57         C  0.85452239  0.94874067  0.00166530     0.77100
C58         C  0.98612841  0.98529783  0.14167077     0.78200
C59         C  0.02792988  0.85841686  0.00208751     0.77300
Zn60       Zn  0.01809405  0.04173780  0.54313712     1.49700
Zn61       Zn  0.93992191  0.01937699  0.45720047     1.49400
Zn62       Zn  0.04481072  0.96382055  0.45926311     1.49100
Zn63       Zn  0.96324695  0.93631337  0.54391885     1.49500
O64         O  0.99155263  0.99009268  0.50079535    -1.84000
O65         O  0.98442073  0.10727525  0.52933571    -0.74600
O66         O  0.95601499  0.01043621  0.38374029    -0.74400
O67         O  0.10994106  0.99825581  0.47369219    -0.74000
O68         O  0.93106513  0.09267017  0.46826697    -0.74600
O69         O  0.09072485  0.05181838  0.53204738    -0.74200
O70         O  0.02847027  0.97184232  0.38457753    -0.74800
O71         O  0.99651994  0.87094618  0.53092960    -0.74200
O72         O  0.87423856  0.98626113  0.47096871    -0.75000
O73         O  0.05362782  0.89025963  0.47320185    -0.74400
O74         O  0.89030670  0.92824342  0.53036565    -0.74800
O75         O  0.97088241  0.95037033  0.61820295    -0.74700
O76         O  0.00930165  0.02339178  0.61676890    -0.74500
C77         C  0.95081020  0.12233845  0.49886332     0.77300
C78         C  0.99184724  0.99092156  0.36069098     0.77800
C79         C  0.12246106  0.03188596  0.50395462     0.76700
C80         C  0.03163427  0.85842765  0.50211718     0.77100
C81         C  0.85999325  0.95080133  0.50076329     0.78200
C82         C  0.99022336  0.98644371  0.64095991     0.77300
C83         C  0.15236986  0.58788261  0.01045241     0.03300
C84         C  0.11474602  0.55201647  0.01216292    -0.12900
C85         C  0.06508802  0.56615741  0.01395452     0.00800
C86         C  0.05300223  0.61665826  0.01413257    -0.11400
C87         C  0.09030998  0.65291863  0.01271010     0.03300
C88         C  0.13998806  0.63843751  0.01082930    -0.10800
H89         H  0.12411418  0.51298633  0.01152228     0.08800
H90         H  0.01462764  0.62780322  0.01435386     0.06400
H91         H  0.16884503  0.66637390  0.01007764     0.06200
C92         C  0.08621859  0.65199943  0.49167569     0.03300
C93         C  0.13587559  0.63767621  0.49148521    -0.12900
C94         C  0.14845328  0.58728377  0.49153060     0.00800
C95         C  0.11100616  0.55114096  0.49209461    -0.11400
C96         C  0.06116749  0.56524040  0.49243350     0.03300
C97         C  0.04898170  0.61577344  0.49193250    -0.10800
H98         H  0.16467654  0.66565995  0.49188968     0.08800
H99         H  0.12063008  0.51214201  0.49254312     0.06400
H100        H  0.01059408  0.62690594  0.49186341     0.06200
C101        C  0.32403144  0.08272249  0.99769981     0.03300
C102        C  0.33863740  0.13250707  0.99992914    -0.12900
C103        C  0.38885450  0.14509748  0.00037167     0.00800
C104        C  0.42448525  0.10762766  0.99989425    -0.11400
C105        C  0.41017936  0.05769304  0.99865042     0.03300
C106        C  0.35988207  0.04534690  0.99690218    -0.10800
H107        H  0.31098525  0.16142644  0.00063088     0.08800
H108        H  0.46335161  0.11733394  0.00057196     0.06400
H109        H  0.34864872  0.00679030  0.99566108     0.06200
C110        C  0.32909860  0.08782474  0.50884515     0.03300
C111        C  0.36576434  0.05127403  0.50709368    -0.12900
C112        C  0.41586789  0.06473694  0.50672598     0.00800
C113        C  0.42911704  0.11500983  0.50779763    -0.11400
C114        C  0.39259173  0.15157009  0.51011819     0.03300
C115        C  0.34271552  0.13781934  0.51127025    -0.10800
H116        H  0.35529444  0.01257100  0.50513926     0.08800
H117        H  0.46773589  0.12568816  0.50662745     0.06400
H118        H  0.31449047  0.16614828  0.51231978     0.06200
Zn119      Zn  0.45736899  0.53553866  0.95890373     1.49700
Zn120      Zn  0.51494860  0.43215936  0.95924783     1.49400
Zn121      Zn  0.54107624  0.51153533  0.04237013     1.49100
Zn122      Zn  0.43775250  0.45349617  0.04713413     1.49500
O123        O  0.48785386  0.48323194  0.00189020    -1.84000
O124        O  0.46307805  0.52049331  0.88471700    -0.74600
O125        O  0.58811452  0.42375348  0.97108178    -0.74400
O126        O  0.54955347  0.58456650  0.02543030    -0.74000
O127        O  0.50495309  0.44994824  0.88481693    -0.74600
O128        O  0.49101818  0.60145028  0.96874339    -0.74200
O129        O  0.60632010  0.47807200  0.02917948    -0.74800
O130        O  0.45607626  0.46128642  0.12013486    -0.74200
O131        O  0.48206770  0.36595439  0.97448335    -0.75000
O132        O  0.52625681  0.50427366  0.11728138    -0.74400
O133        O  0.42924222  0.38059265  0.03606569    -0.74800
O134        O  0.37151725  0.48604343  0.03616243    -0.74700
O135        O  0.38499813  0.54334453  0.97546419    -0.74500
C136        C  0.48330556  0.48571351  0.86104363     0.77300
C137        C  0.61945440  0.44435007  0.99952748     0.77800
C138        C  0.52707035  0.61534084  0.99581840     0.76700
C139        C  0.49156123  0.48273694  0.14219401     0.77100
C140        C  0.44912559  0.35092954  0.00594495     0.78200
C141        C  0.35598514  0.52125452  0.00697041     0.77300
Zn142      Zn  0.51418817  0.43849135  0.46086593     1.49700
Zn143      Zn  0.53823865  0.52011589  0.54207843     1.49400
Zn144      Zn  0.45752155  0.54255219  0.45498987     1.49100
Zn145      Zn  0.43453025  0.46317391  0.54489799     1.49500
O146        O  0.48617698  0.49120110  0.50074136    -1.84000
O147        O  0.58655933  0.42965425  0.47543893    -0.74600
O148        O  0.54617693  0.59335419  0.52408602    -0.74400
O149        O  0.46748259  0.52597810  0.38204096    -0.74000
O150        O  0.60381095  0.48761788  0.53005261    -0.74600
O151        O  0.50745948  0.45426153  0.38622438    -0.74200
O152        O  0.49062969  0.60868042  0.46394224    -0.74800
O153        O  0.36916762  0.49576564  0.53009828    -0.74200
O154        O  0.52346214  0.51042950  0.61711084    -0.75000
O155        O  0.38414596  0.55056814  0.46726611    -0.74400
O156        O  0.45057987  0.47221181  0.61850543    -0.74800
O157        O  0.42605293  0.38983693  0.53533091    -0.74700
O158        O  0.48044644  0.37297699  0.47582599    -0.74500
C159        C  0.61730599  0.45195976  0.50320055     0.77300
C160        C  0.52534231  0.62336298  0.49226894     0.77800
C161        C  0.48832009  0.49021242  0.36056169     0.76700
C162        C  0.35438074  0.52954390  0.49876728     0.77100
C163        C  0.48729310  0.49073894  0.64136578     0.75400
C164        C  0.44662786  0.35916850  0.50673171     0.77300
C165        C  0.44526686  0.50633758  0.72238309    -0.20200
C166        C  0.48729048  0.48951425  0.69742431    -0.06700
C167        C  0.52732381  0.47030440  0.72630116     0.14100
C168        C  0.52449913  0.46902460  0.77946364    -0.20200
C169        C  0.48304392  0.48724261  0.80467772    -0.06700
C170        C  0.44273833  0.50603105  0.77554753     0.14100
C171        C  0.39635267  0.52454239  0.79988180    -0.23600
H172        H  0.41440182  0.52042156  0.70000295     0.15400
H173        H  0.55527950  0.45429797  0.80152713     0.15400
C174        C  0.57239867  0.44968617  0.70129682    -0.23500
H175        H  0.36769338  0.53481452  0.77125658     0.05600
H176        H  0.40458530  0.55817273  0.82132071     0.08900
H177        H  0.38068430  0.49513871  0.82577037     0.08900
H178        H  0.59154125  0.47946759  0.67870295     0.08900
H179        H  0.56139837  0.41949935  0.67611426     0.08900
H180        H  0.59914044  0.43414849  0.72957297     0.05600
C181        C  0.49926034  0.52924869  0.22079094    -0.20200
C182        C  0.49184327  0.48367322  0.19803380    -0.06700
C183        C  0.48425201  0.44030449  0.22883386     0.14100
C184        C  0.48398783  0.44373643  0.28168029    -0.20200
C185        C  0.48979998  0.48954345  0.30456355    -0.06700
C186        C  0.49769754  0.53295591  0.27365614     0.14100
C187        C  0.50569552  0.58303869  0.29591161    -0.23600
H188        H  0.50522983  0.56235110  0.19692693     0.15400
H189        H  0.47827732  0.41045178  0.30533346     0.15400
C190        C  0.47764266  0.39015909  0.20631670    -0.23500
H191        H  0.51414119  0.61210455  0.26620733     0.05600
H192        H  0.53720083  0.58128836  0.32287399     0.08900
H193        H  0.47188259  0.59471421  0.31580413     0.08900
H194        H  0.50970647  0.38204687  0.18189565     0.08900
H195        H  0.44324109  0.38948042  0.18348915     0.08900
H196        H  0.47482400  0.36003405  0.23607887     0.05600
C197        C  0.40451823  0.23031635  0.55391837    -0.20200
C198        C  0.40624712  0.20456970  0.50894252    -0.06700
C199        C  0.41944684  0.22981972  0.46322740     0.14100
C200        C  0.43224591  0.28022051  0.46377036    -0.20200
C201        C  0.43108246  0.30631754  0.50882373    -0.06700
C202        C  0.41654780  0.28100815  0.55453177     0.14100
C203        C  0.41491286  0.30648938  0.60432077    -0.23600
H204        H  0.39377245  0.21051844  0.58870518     0.15400
H205        H  0.44268399  0.29952277  0.42861592     0.15400
C206        C  0.41901294  0.20375085  0.41377033    -0.23500
H207        H  0.40546543  0.28021079  0.63629319     0.05600
H208        H  0.38630356  0.33584788  0.60290079     0.08900
H209        H  0.45152278  0.32306213  0.61249410     0.08900
H210        H  0.38146563  0.18888472  0.40653782     0.08900
H211        H  0.44576316  0.17266703  0.41537426     0.08900
H212        H  0.42921156  0.22921317  0.38138181     0.05600
C213        C  0.43818371  0.27246359  0.96112162    -0.20200
C214        C  0.43315193  0.29808938  0.00621733    -0.06700
C215        C  0.41344969  0.27254190  0.04975890     0.14100
C216        C  0.39904496  0.22264679  0.04656221    -0.20200
C217        C  0.40421079  0.19758291  0.00145043    -0.06700
C218        C  0.42394338  0.22263784  0.95822803     0.14100
C219        C  0.42912443  0.19708289  0.90877203    -0.23600
H220        H  0.45289189  0.29166811  0.92760405     0.15400
H221        H  0.38403754  0.20278943  0.07958245     0.15400
C222        C  0.40876855  0.29664657  0.10011704    -0.23500
H223        H  0.44396783  0.22251193  0.87835352     0.05600
H224        H  0.39248938  0.18343101  0.89636674     0.08900
H225        H  0.45477439  0.16525598  0.91346265     0.08900
H226        H  0.38158577  0.32729483  0.09730158     0.08900
H227        H  0.44524408  0.31114531  0.11201442     0.08900
H228        H  0.39569947  0.26996992  0.13033210     0.05600
C229        C  0.22100033  0.55356003  0.53829831    -0.20200
C230        C  0.20093550  0.57244337  0.49266646    -0.06700
C231        C  0.23112550  0.57766908  0.44936971     0.14100
C232        C  0.28092810  0.56356772  0.45262744    -0.20200
C233        C  0.30140432  0.54423199  0.49824903    -0.06700
C234        C  0.27086265  0.53964938  0.54190231     0.14100
C235        C  0.29044662  0.52179893  0.59290929    -0.23600
H236        H  0.19750432  0.55020900  0.57143267     0.15400
H237        H  0.30382842  0.56716775  0.41909181     0.15400
C238        C  0.21054210  0.59735237  0.39953198    -0.23500
H239        H  0.26215374  0.52422098  0.62308884     0.05600
H240        H  0.32244693  0.54499074  0.60376686     0.08900
H241        H  0.30164677  0.48233987  0.59171011     0.08900
H242        H  0.19707861  0.63582062  0.40343133     0.08900
H243        H  0.17943474  0.57347269  0.38768302     0.08900
H244        H  0.23882949  0.59799934  0.36913026     0.05600
C245        C  0.22328422  0.54388946  0.05065950    -0.20200
C246        C  0.20457892  0.57183783  0.00916489    -0.06700
C247        C  0.23489599  0.58162271  0.96656569     0.14100
C248        C  0.28384946  0.56467762  0.96724771    -0.20200
C249        C  0.30325820  0.53708612  0.00903832    -0.06700
C250        C  0.27198713  0.52610000  0.05124796     0.14100
C251        C  0.28914489  0.49632964  0.09748126    -0.23600
H252        H  0.19938930  0.53589451  0.08285226     0.15400
H253        H  0.30687101  0.57250031  0.93438230     0.15400
C254        C  0.21518684  0.60820046  0.91954498    -0.23500
H255        H  0.26009089  0.49322451  0.12707649     0.05600
H256        H  0.32176645  0.51447759  0.11441378     0.08900
H257        H  0.29852891  0.45803157  0.08702514     0.08900
H258        H  0.20419026  0.64652478  0.92812081     0.08900
H259        H  0.18266181  0.58784407  0.90514780     0.08900
H260        H  0.24321496  0.61070037  0.88890161     0.05600
C261        C  0.20435684  0.04295740  0.46283138    -0.20200
C262        C  0.17503365  0.04797218  0.50617065    -0.06700
C263        C  0.19698751  0.06698209  0.55038727     0.14100
C264        C  0.24730769  0.07982096  0.54983899    -0.20200
C265        C  0.27631771  0.07413404  0.50662869    -0.06700
C266        C  0.25444308  0.05619813  0.46229289     0.14100
C267        C  0.28235241  0.05160874  0.41335060    -0.23600
H268        H  0.18795092  0.02914480  0.42863489     0.15400
H269        H  0.26441884  0.09389877  0.58356734     0.15400
C270        C  0.16860451  0.07227144  0.59894802    -0.23500
H271        H  0.26374412  0.07409951  0.38286614     0.05600
H272        H  0.28262634  0.01218624  0.40272018     0.08900
H273        H  0.32105579  0.06476789  0.41540935     0.08900
H274        H  0.15248389  0.03588016  0.61124685     0.08900
H275        H  0.13892671  0.10020212  0.59335361     0.08900
H276        H  0.19261355  0.08489183  0.63011307     0.05600
C277        C  0.05860776  0.78617923  0.45372495    -0.20200
C278        C  0.04643831  0.80556830  0.50078179    -0.06700
C279        C  0.04849810  0.77410543  0.54497871     0.14100
C280        C  0.06184164  0.72416744  0.54075798    -0.20200
C281        C  0.07311969  0.70494560  0.49368960    -0.06700
C282        C  0.07157462  0.73612495  0.44964779     0.14100
C283        C  0.08283190  0.71629077  0.39840558    -0.23600
H284        H  0.05699666  0.81008664  0.41979411     0.15400
H285        H  0.06352065  0.69983665  0.57437843     0.15400
C286        C  0.03827340  0.79308164  0.59684838    -0.23500
H287        H  0.07937809  0.74546815  0.36776085     0.05600
H288        H  0.05669879  0.68580453  0.39016592     0.08900
H289        H  0.12112694  0.70182670  0.39795816     0.08900
H290        H  0.99915670  0.80465017  0.59960271     0.08900
H291        H  0.06290736  0.82504447  0.60413112     0.08900
H292        H  0.04485569  0.76413162  0.62715115     0.05600
C293        C  0.19608357  0.04390173  0.95527829    -0.20200
C294        C  0.16953813  0.04540054  0.00091407    -0.06700
C295        C  0.19449694  0.05932767  0.04547767     0.14100
C296        C  0.24490906  0.07149478  0.04293925    -0.20200
C297        C  0.27107801  0.06979587  0.99735607    -0.06700
C298        C  0.24642382  0.05601588  0.95288055     0.14100
C299        C  0.27180635  0.05421897  0.90222340    -0.23600
H300        H  0.17736151  0.03343770  0.92095810     0.15400
H301        H  0.26430844  0.08193164  0.07687024     0.15400
C302        C  0.16911822  0.05971909  0.09623399    -0.23500
H303        H  0.25306425  0.07991030  0.87457721     0.05600
H304        H  0.26956299  0.01595842  0.88828249     0.08900
H305        H  0.31125418  0.06510665  0.90363893     0.08900
H306        H  0.15271220  0.02267348  0.10547932     0.08900
H307        H  0.13987643  0.08842513  0.09559077     0.08900
H308        H  0.19523628  0.06844091  0.12714988     0.05600
C309        C  0.04209292  0.77854662  0.04986725    -0.20200
C310        C  0.04563262  0.80618077  0.00373516    -0.06700
C311        C  0.06553394  0.78314218  0.96089144     0.14100
C312        C  0.08091182  0.73341713  0.96550163    -0.20200
C313        C  0.07686303  0.70606291  0.01153124    -0.06700
C314        C  0.05770437  0.72903525  0.05439746     0.14100
C315        C  0.05379866  0.70272799  0.10566438    -0.23600
H316        H  0.02751255  0.79584429  0.08301601     0.15400
H317        H  0.09533879  0.71535271  0.93274292     0.15400
C318        C  0.06906715  0.80968325  0.90968591    -0.23500
H319        H  0.07523728  0.72355026  0.13381094     0.05600
H320        H  0.06828481  0.66434090  0.10618075     0.08900
H321        H  0.01453412  0.70110842  0.11759791     0.08900
H322        H  0.09550717  0.84110753  0.91125310     0.08900
H323        H  0.03212457  0.82356941  0.89776841     0.08900
H324        H  0.08245663  0.78480185  0.88015092     0.05600
C325        C  0.02987659  0.99623343  0.77812860    -0.20200
C326        C  0.98463579  0.98963364  0.80352265    -0.06700
C327        C  0.94148763  0.98006851  0.77500724     0.14100
C328        C  0.94478974  0.97787833  0.72204983    -0.20200
C329        C  0.98972299  0.98611918  0.69682083    -0.06700
C330        C  0.03289641  0.99508242  0.72516780     0.14100
C331        C  0.08242607  0.00220480  0.69989537    -0.23600
H332        H  0.06305507  0.00299499  0.79984990     0.15400
H333        H  0.91187318  0.97076230  0.70002563     0.15400
C334        C  0.89212502  0.97081433  0.79995977    -0.23500
H335        H  0.11262226  0.00602421  0.72800075     0.05600
H336        H  0.08218084  0.03643031  0.67522388     0.08900
H337        H  0.09082486  0.96974580  0.67680487     0.08900
H338        H  0.87974412  0.00465866  0.81878207     0.08900
H339        H  0.89499445  0.93945945  0.82831134     0.08900
H340        H  0.86325483  0.96120567  0.77202715     0.05600
C341        C  0.99650930  0.94443353  0.28156252    -0.20200
C342        C  0.99047950  0.98991396  0.30481361    -0.06700
C343        C  0.98275543  0.03343842  0.27447387     0.14100
C344        C  0.98144980  0.03047384  0.22156326    -0.20200
C345        C  0.98664003  0.98493387  0.19798906    -0.06700
C346        C  0.99403294  0.94117809  0.22856752     0.14100
C347        C  0.00065093  0.89120187  0.20585628    -0.23600
H348        H  0.00239312  0.91114726  0.30512172     0.15400
H349        H  0.97591832  0.06405688  0.19838974     0.15400
C350        C  0.97742437  0.08335855  0.29765220    -0.23500
H351        H  0.00852179  0.86174367  0.23529870     0.05600
H352        H  0.03204343  0.89262749  0.17886029     0.08900
H353        H  0.96640561  0.88037410  0.18590425     0.08900
H354        H  0.01030504  0.09109809  0.32129436     0.08900
H355        H  0.94374812  0.08388284  0.32146552     0.08900
H356        H  0.97410053  0.11375816  0.26826992     0.05600
C357        C  0.50313028  0.95849919  0.54036153    -0.20200
C358        C  0.52889764  0.95446626  0.49471015    -0.06700
C359        C  0.51737553  0.98660362  0.45292898     0.14100
C360        C  0.48032051  0.02239337  0.45786783    -0.20200
C361        C  0.45448949  0.02638341  0.50352613    -0.06700
C362        C  0.46610019  0.99427158  0.54531468     0.14100
C363        C  0.44021622  0.99844713  0.59539428    -0.23600
H364        H  0.51232716  0.93377917  0.57227303     0.15400
H365        H  0.47115834  0.04713777  0.42596553     0.15400
C366        C  0.54344668  0.98244707  0.40294078    -0.23500
H367        H  0.45477170  0.97140111  0.62443878     0.05600
H368        H  0.40015433  0.99112734  0.59081958     0.08900
H369        H  0.44557523  0.03634544  0.60952123     0.08900
H370        H  0.53806268  0.94458449  0.38872493     0.08900
H371        H  0.58352037  0.98962568  0.40770495     0.08900
H372        H  0.52906572  0.00958497  0.37389364     0.05600
C373        C  0.54705007  0.75923333  0.44867157    -0.20200
C374        C  0.57581144  0.77602241  0.48876928    -0.06700
C375        C  0.58788828  0.74281187  0.52948722     0.14100
C376        C  0.57111196  0.69359675  0.52895269    -0.20200
C377        C  0.54194971  0.67631359  0.48908982    -0.06700
C378        C  0.52997754  0.70992873  0.44802536     0.14100
C379        C  0.49988863  0.69469335  0.40302709    -0.23600
H380        H  0.53779555  0.78511594  0.41766306     0.15400
H381        H  0.58033082  0.66862408  0.56067558     0.15400
C382        C  0.61668060  0.75953176  0.57473835    -0.23500
H383        H  0.49621026  0.72542330  0.37402836     0.05600
H384        H  0.46202849  0.68396657  0.41525855     0.08900
H385        H  0.51799659  0.66323364  0.38463060     0.08900
H386        H  0.59775474  0.79134451  0.59165948     0.08900
H387        H  0.65459363  0.77072115  0.56334603     0.08900
H388        H  0.62003440  0.72949352  0.60450853     0.05600
C389        C  0.73283840  0.89864484  0.53749652    -0.20200
C390        C  0.70678144  0.90712995  0.49210114    -0.06700
C391        C  0.73096388  0.92976878  0.44991779     0.14100
C392        C  0.78063516  0.94373023  0.45431200    -0.20200
C393        C  0.80724025  0.93518391  0.49961762    -0.06700
C394        C  0.78269699  0.91251014  0.54201627     0.14100
C395        C  0.80784311  0.90421833  0.59263154    -0.23600
H396        H  0.71376522  0.88154297  0.56975835     0.15400
H397        H  0.79890696  0.96079866  0.42154686     0.15400
C398        C  0.70584468  0.93896741  0.39943690    -0.23500
H399        H  0.78194317  0.88915009  0.62198891     0.05600
H400        H  0.82269824  0.93991171  0.60587754     0.08900
H401        H  0.83819388  0.87701859  0.58948299     0.08900
H402        H  0.66717859  0.92543900  0.39885570     0.08900
H403        H  0.72638081  0.91963893  0.36971324     0.08900
H404        H  0.70571639  0.97938696  0.38972506     0.05600
C405        C  0.51386899  0.97114657  0.04042491    -0.20200
C406        C  0.52205376  0.94562980  0.99599135    -0.06700
C407        C  0.49259489  0.95610426  0.95274072     0.14100
C408        C  0.45581274  0.99250545  0.95477402    -0.20200
C409        C  0.44807515  0.01848162  0.99902863    -0.06700
C410        C  0.47695041  0.00733971  0.04255188     0.14100
C411        C  0.46814543  0.03279131  0.09151570    -0.23600
H412        H  0.53631776  0.96247759  0.07356684     0.15400
H413        H  0.43344330  0.00126681  0.92159828     0.15400
C414        C  0.50075255  0.92982612  0.90415283    -0.23500
H415        H  0.49275974  0.01822437  0.12226104     0.05600
H416        H  0.42933787  0.02670239  0.10380283     0.08900
H417        H  0.47525539  0.07319617  0.08632571     0.08900
H418        H  0.49391552  0.88945277  0.91029488     0.08900
H419        H  0.53933302  0.93585477  0.89110161     0.08900
H420        H  0.47555548  0.94369859  0.87360020     0.05600
C421        C  0.54871167  0.75134038  0.95435875    -0.20200
C422        C  0.57398211  0.76872951  0.99654077    -0.06700
C423        C  0.58407358  0.73569961  0.03805629     0.14100
C424        C  0.56907154  0.68600855  0.03594875    -0.20200
C425        C  0.54297661  0.66837056  0.99409854    -0.06700
C426        C  0.53288840  0.70177919  0.95248263     0.14100
C427        C  0.50630174  0.68589399  0.90553002    -0.23600
H428        H  0.54107092  0.77701024  0.92271003     0.15400
H429        H  0.57671853  0.66115895  0.06824591     0.15400
C430        C  0.60875707  0.75172893  0.08602707    -0.23500
H431        H  0.50442987  0.71635353  0.87605164     0.05600
H432        H  0.46776174  0.67498995  0.91495919     0.08900
H433        H  0.52598279  0.65435502  0.88894743     0.08900
H434        H  0.58413982  0.74313804  0.11880637     0.08900
H435        H  0.61703598  0.79195597  0.08592512     0.08900
H436        H  0.64387298  0.73114890  0.09171419     0.05600
C437        C  0.77444763  0.93894542  0.95670289    -0.20200
C438        C  0.80190980  0.93243073  0.00176582    -0.06700
C439        C  0.77825251  0.91128245  0.04549086     0.14100
C440        C  0.72836164  0.89710620  0.04266697    -0.20200
C441        C  0.70143157  0.90360336  0.99761781    -0.06700
C442        C  0.72463085  0.92465053  0.95409868     0.14100
C443        C  0.69706472  0.93109904  0.90467673    -0.23600
H444        H  0.79221220  0.95479192  0.92303758     0.15400
H445        H  0.71002655  0.88102981  0.07591277     0.15400
C446        C  0.80451688  0.90474269  0.09568865    -0.23500
H447        H  0.72103519  0.94694872  0.87400355     0.05600
H448        H  0.66543344  0.95656832  0.90917609     0.08900
H449        H  0.68310116  0.89456155  0.89279397     0.08900
H450        H  0.81975785  0.94089356  0.10722274     0.08900
H451        H  0.83471344  0.87733008  0.09281237     0.08900
H452        H  0.77926466  0.89076442  0.12615380     0.05600
C453        C  0.95461308  0.48115580  0.53419886    -0.20200
C454        C  0.94752931  0.45349733  0.49085722    -0.06700
C455        C  0.97744520  0.46311825  0.44779264     0.14100
C456        C  0.01443855  0.49965266  0.44945242    -0.20200
C457        C  0.02172106  0.52710655  0.49288724    -0.06700
C458        C  0.99148304  0.51782691  0.53579238     0.14100
C459        C  0.99891660  0.54561834  0.58365055    -0.23600
H460        H  0.93149706  0.47358238  0.56709153     0.15400
H461        H  0.03753540  0.50724461  0.41655772     0.15400
C462        C  0.96944429  0.43592416  0.39965354    -0.23500
H463        H  0.97325511  0.53244892  0.61409025     0.05600
H464        H  0.99217975  0.58578687  0.57623030     0.08900
H465        H  0.03727816  0.54021530  0.59762948     0.08900
H466        H  0.93090182  0.44145389  0.38625224     0.08900
H467        H  0.97630422  0.39569894  0.40641621     0.08900
H468        H  0.99469288  0.44953198  0.36903572     0.05600
C469        C  0.92966204  0.25736335  0.53398644    -0.20200
C470        C  0.89940536  0.27446383  0.49401283    -0.06700
C471        C  0.88592100  0.24166442  0.45590703     0.14100
C472        C  0.90338457  0.19264649  0.45867873    -0.20200
C473        C  0.93404921  0.17515373  0.49863865    -0.06700
C474        C  0.94708325  0.20837503  0.53710197     0.14100
C475        C  0.97882205  0.19321557  0.58205230    -0.23600
H476        H  0.93976024  0.28280244  0.56308456     0.15400
H477        H  0.89312415  0.16795261  0.42901151     0.15400
C478        C  0.85435332  0.25836671  0.41143587    -0.23500
H479        H  0.98346663  0.22379593  0.60867102     0.05600
H480        H  0.01625677  0.18296247  0.56914332     0.08900
H481        H  0.96145422  0.16153411  0.60350667     0.08900
H482        H  0.87109794  0.29152301  0.39192904     0.08900
H483        H  0.81675860  0.26734429  0.42456450     0.08900
H484        H  0.85053176  0.22897927  0.38335420     0.05600
C485        C  0.75152867  0.42688574  0.54080502    -0.20200
C486        C  0.76934546  0.40599165  0.49670160    -0.06700
C487        C  0.73738239  0.40022119  0.45512104     0.14100
C488        C  0.68811861  0.41535480  0.45872871    -0.20200
C489        C  0.66990255  0.43653356  0.50277348    -0.06700
C490        C  0.70216640  0.44207194  0.54461813     0.14100
C491        C  0.68491878  0.46243069  0.59391753    -0.23600
H492        H  0.77646202  0.43105809  0.57253145     0.15400
H493        H  0.66383943  0.41126235  0.42647812     0.15400
C494        C  0.75544827  0.37940019  0.40640279    -0.23500
H495        H  0.71440982  0.46089956  0.62321410     0.05600
H496        H  0.65310086  0.44029001  0.60880561     0.08900
H497        H  0.67410844  0.50188294  0.58816504     0.08900
H498        H  0.76763687  0.34056919  0.41325428     0.08900
H499        H  0.78681592  0.40205546  0.39130057     0.08900
H500        H  0.72604976  0.37938527  0.37702739     0.05600
C501        C  0.95766142  0.48029179  0.04879953    -0.20200
C502        C  0.95264003  0.45407071  0.00416920    -0.06700
C503        C  0.98453744  0.46499993  0.96291422     0.14100
C504        C  0.02081452  0.50181621  0.96735555    -0.20200
C505        C  0.02587488  0.52800948  0.01189809    -0.06700
C506        C  0.99424080  0.51697721  0.05330679     0.14100
C507        C  0.00005485  0.54271595  0.10260846    -0.23600
H508        H  0.93326291  0.47149729  0.08041428     0.15400
H509        H  0.04527163  0.51052906  0.93577016     0.15400
C510        C  0.97959183  0.43886950  0.91371855    -0.23500
H511        H  0.97340521  0.52835081  0.13158396     0.05600
H512        H  0.99361319  0.58311490  0.09665682     0.08900
H513        H  0.03794091  0.53665114  0.11768769     0.08900
H514        H  0.94169519  0.44401087  0.89836520     0.08900
H515        H  0.98702186  0.39867879  0.91983543     0.08900
H516        H  0.00610170  0.45363411  0.88480096     0.05600
C517        C  0.92342379  0.25371483  0.03975324    -0.20200
C518        C  0.90481302  0.27580151  0.99493988    -0.06700
C519        C  0.89995302  0.24748115  0.95143260     0.14100
C520        C  0.91333814  0.19714542  0.95402883    -0.20200
C521        C  0.93225928  0.17464154  0.99895126    -0.06700
C522        C  0.93723472  0.20360874  0.04253440     0.14100
C523        C  0.95572926  0.18224156  0.09268244    -0.23600
H524        H  0.92687262  0.27593840  0.07290985     0.15400
H525        H  0.90983777  0.17552488  0.92047450     0.15400
C526        C  0.88197142  0.27069318  0.90199620    -0.23500
H527        H  0.95371609  0.20959563  0.12298797     0.05600
H528        H  0.99498817  0.17125991  0.08943685     0.08900
H529        H  0.93291207  0.14963335  0.10483091     0.08900
H530        H  0.90662003  0.30203162  0.89016806     0.08900
H531        H  0.84383016  0.28471306  0.90640028     0.08900
H532        H  0.88165114  0.24364869  0.87133214     0.05600
C533        C  0.74524272  0.39663345  0.95723145    -0.20200
C534        C  0.77408324  0.40515252  0.00013426    -0.06700
C535        C  0.75179806  0.42465060  0.04328075     0.14100
C536        C  0.70142739  0.43674509  0.04182876    -0.20200
C537        C  0.67230260  0.42907589  0.99859622    -0.06700
C538        C  0.69470461  0.40819907  0.95574495     0.14100
C539        C  0.66644143  0.39897478  0.90772708    -0.23600
H540        H  0.76261789  0.38107866  0.92451733     0.15400
H541        H  0.68458790  0.45184319  0.07503660     0.15400
C542        C  0.78059244  0.43115367  0.09150225    -0.23500
H543        H  0.69069005  0.38488136  0.87765678     0.05600
H544        H  0.64956494  0.43406020  0.89283069     0.08900
H545        H  0.63733546  0.37058403  0.91525375     0.08900
H546        H  0.81064874  0.45868286  0.08504398     0.08900
H547        H  0.79671241  0.39507028  0.10455923     0.08900
H548        H  0.75683904  0.44455083  0.12231704     0.05600
loop_ 
_geom_bond_atom_site_label_1 
_geom_bond_atom_site_label_2 
_geom_bond_distance 
_geom_bond_site_symmetry_2 
_ccdc_geom_bond_type 
C1            C2   1.401       .  A
C1            C6   1.401       .  A
C1          C518   1.477       .  S
C2            C3   1.402       .  A
C2            H7   1.084       .  S
C3            C4   1.405   1_556  A
C3          C534   1.481   1_556  S
C4            C5   1.404       .  A
C4            H8   1.083       .  S
C5            C6   1.402   1_554  A
C5          C502   1.480       .  S
C6            H9   1.084   1_556  S
C10          C11   1.403       .  A
C10          C15   1.402       .  A
C10         C486   1.477       .  S
C11          C12   1.404       .  A
C11          H16   1.083       .  S
C12          C13   1.404       .  A
C12         C470   1.484       .  S
C13          C14   1.402       .  A
C13          H17   1.084       .  S
C14          C15   1.402       .  A
C14         C454   1.480       .  S
C15          H18   1.084       .  S
C19          C20   1.404       .  A
C19          C24   1.401       .  A
C19         C422   1.479       .  S
C20          C21   1.403       .  A
C20          H25   1.084       .  S
C21          C22   1.403       .  A
C21         C441   1.478       .  S
C22          C23   1.402       .  A
C22          H26   1.084       .  S
C23          C24   1.400       .  A
C23         C406   1.476       .  S
C24          H27   1.084       .  S
C28          C29   1.404       .  A
C28          C33   1.404       .  A
C28         C374   1.482       .  S
C29          C30   1.402       .  A
C29          H34   1.084       .  S
C30          C31   1.402       .  A
C30         C390   1.477       .  S
C31          C32   1.402       .  A
C31          H35   1.084       .  S
C32          C33   1.402       .  A
C32         C358   1.478       .  S
C33          H36   1.084       .  S
Zn37         O41   1.959   1_456  S
Zn37         O42   2.012       .  S
Zn37         O46   2.009       .  S
Zn37         O53   2.015       .  S
Zn38         O41   1.955   1_445  S
Zn38         O43   2.004   1_455  S
Zn38         O45   2.017       .  S
Zn38         O49   2.014       .  S
Zn39         O41   1.969   1_546  S
Zn39         O44   2.029       .  S
Zn39         O47   2.037       .  S
Zn39         O50   2.025   1_545  S
Zn40         O41   1.963       .  S
Zn40         O48   2.023       .  S
Zn40         O51   2.029       .  S
Zn40         O52   2.025       .  S
O42          C54   1.273   1_566  A
O43          C55   1.271   1_554  A
O44          C56   1.274   1_545  A
O45          C54   1.272       .  A
O46          C56   1.273   1_455  A
O47          C55   1.276       .  A
O48          C57   1.274       .  A
O49          C58   1.273   1_445  A
O50          C57   1.275   1_556  A
O51          C58   1.274       .  A
O52          C59   1.275   1_655  A
O53          C59   1.272   1_556  A
C54         C294   1.485       .  S
C55         C521   1.489       .  S
C56         C326   1.484       .  S
C57         C438   1.490       .  S
C58         C345   1.487       .  S
C59         C310   1.489       .  S
Zn60         O64   1.954   1_445  S
Zn60         O65   2.013   1_455  S
Zn60         O69   2.006       .  S
Zn60         O76   2.002       .  S
Zn61         O64   1.959   1_545  S
Zn61         O66   2.013       .  S
Zn61         O68   2.025       .  S
Zn61         O72   2.015   1_545  S
Zn62         O64   1.965   1_455  S
Zn62         O67   2.033       .  S
Zn62         O70   2.024       .  S
Zn62         O73   2.019       .  S
Zn63         O64   1.963       .  S
Zn63         O71   2.024       .  S
Zn63         O74   2.020       .  S
Zn63         O75   2.023       .  S
O65          C77   1.271       .  A
O66          C78   1.273   1_545  A
O67          C79   1.276   1_565  A
O68          C77   1.275       .  A
O69          C79   1.271       .  A
O70          C78   1.274   1_455  A
O71          C80   1.274   1_655  A
O72          C81   1.274       .  A
O73          C80   1.274       .  A
O74          C81   1.273       .  A
O75          C82   1.274       .  A
O76          C82   1.271   1_445  A
C77         C473   1.497       .  S
C78         C342   1.477       .  S
C79         C262   1.489       .  S
C80         C278   1.484       .  S
C81         C393   1.489       .  S
C82         C329   1.475       .  S
C83          C84   1.402       .  A
C83          C88   1.406       .  A
C83         C246   1.481       .  S
C84          C85   1.401       .  A
C84          H89   1.085       .  S
C85          C86   1.402       .  A
C85         C505   1.478       .  S
C86          C87   1.403       .  A
C86          H90   1.083       .  S
C87          C88   1.404       .  A
C87         C313   1.479       .  S
C88          H91   1.083       .  S
C92          C93   1.401       .  A
C92          C97   1.401       .  A
C92         C281   1.476       .  S
C93          C94   1.402       .  A
C93          H98   1.084       .  S
C94          C95   1.404       .  A
C94         C230   1.478       .  S
C95          C96   1.404       .  A
C95          H99   1.084       .  S
C96          C97   1.403       .  A
C96         C457   1.480       .  S
C97         H100   1.083       .  S
C101        C102   1.402       .  A
C101        C106   1.403       .  A
C101        C297   1.475       .  S
C102        C103   1.401   1_556  A
C102        H107   1.084   1_556  S
C103        C104   1.401   1_554  A
C103        C217   1.475       .  S
C104        C105   1.402       .  A
C104        H108   1.084   1_556  S
C105        C106   1.402       .  A
C105        C409   1.476       .  S
C106        H109   1.084       .  S
C110        C111   1.404       .  A
C110        C115   1.400       .  A
C110        C265   1.477       .  S
C111        C112   1.404       .  A
C111        H116   1.084       .  S
C112        C113   1.403       .  A
C112        C361   1.479       .  S
C113        C114   1.403       .  A
C113        H117   1.084       .  S
C114        C115   1.400       .  A
C114        C198   1.474       .  S
C115        H118   1.084       .  S
Zn119       O123   1.960   1_556  S
Zn119       O124   2.023       .  S
Zn119       O128   2.020       .  S
Zn119       O135   2.023       .  S
Zn120       O123   1.958   1_556  S
Zn120       O125   2.018       .  S
Zn120       O127   2.023       .  S
Zn120       O131   2.019       .  S
Zn121       O123   1.963       .  S
Zn121       O126   2.015       .  S
Zn121       O129   2.025       .  S
Zn121       O132   2.021       .  S
Zn122       O123   1.959       .  S
Zn122       O130   2.009       .  S
Zn122       O133   2.011       .  S
Zn122       O134   2.016       .  S
O124        C136   1.274       .  A
O125        C137   1.273       .  A
O126        C138   1.274   1_554  A
O127        C136   1.275       .  A
O128        C138   1.273       .  A
O129        C137   1.275   1_554  A
O130        C139   1.272       .  A
O131        C140   1.275   1_556  A
O132        C139   1.274       .  A
O133        C140   1.272       .  A
O134        C141   1.272       .  A
O135        C141   1.275   1_556  A
C136        C169   1.488       .  S
C137        C537   1.492       .  S
C138        C425   1.491       .  S
C139        C182   1.476       .  S
C140        C214   1.487       .  S
C141        C249   1.494       .  S
Zn142       O146   1.958       .  S
Zn142       O147   2.010       .  S
Zn142       O151   2.009       .  S
Zn142       O158   2.012       .  S
Zn143       O146   1.960       .  S
Zn143       O148   2.024       .  S
Zn143       O150   2.015       .  S
Zn143       O154   2.029       .  S
Zn144       O146   1.964       .  S
Zn144       O149   2.013       .  S
Zn144       O152   2.015       .  S
Zn144       O155   2.028       .  S
Zn145       O146   1.954       .  S
Zn145       O153   2.011       .  S
Zn145       O156   2.015       .  S
Zn145       O157   2.016       .  S
O147        C159   1.273       .  A
O148        C160   1.276       .  A
O149        C161   1.272       .  A
O150        C159   1.272       .  A
O151        C161   1.273       .  A
O152        C160   1.272       .  A
O153        C162   1.272       .  A
O154        C163   1.274       .  A
O155        C162   1.275       .  A
O156        C163   1.273       .  A
O157        C164   1.272       .  A
O158        C164   1.273       .  A
C159        C489   1.486       .  S
C160        C377   1.495       .  S
C161        C185   1.480       .  S
C162        C233   1.490       .  S
C163        C166   1.480       .  S
C164        C201   1.484       .  S
C165        C166   1.402       .  A
C165        C170   1.406       .  A
C165        H172   1.084       .  S
C166        C167   1.413       .  A
C167        C168   1.405       .  A
C167        C174   1.508       .  S
C168        C169   1.407       .  A
C168        H173   1.084       .  S
C169        C170   1.418       .  A
C170        C171   1.508       .  S
C171        H175   1.111       .  S
C171        H176   1.109       .  S
C171        H177   1.110       .  S
C174        H178   1.109       .  S
C174        H179   1.111       .  S
C174        H180   1.111       .  S
C181        C182   1.403       .  A
C181        C186   1.404       .  A
C181        H188   1.084       .  S
C182        C183   1.413       .  A
C183        C184   1.402       .  A
C183        C190   1.508       .  S
C184        C185   1.404       .  A
C184        H189   1.084       .  S
C185        C186   1.417       .  A
C186        C187   1.509       .  S
C187        H191   1.111       .  S
C187        H192   1.110       .  S
C187        H193   1.110       .  S
C190        H194   1.110       .  S
C190        H195   1.109       .  S
C190        H196   1.111       .  S
C197        C198   1.400       .  A
C197        C202   1.405       .  A
C197        H204   1.084       .  S
C198        C199   1.409       .  A
C199        C200   1.402       .  A
C199        C206   1.507       .  S
C200        C201   1.406       .  A
C200        H205   1.084       .  S
C201        C202   1.419       .  A
C202        C203   1.508       .  S
C203        H207   1.111       .  S
C203        H208   1.110       .  S
C203        H209   1.110       .  S
C206        H210   1.111       .  S
C206        H211   1.110       .  S
C206        H212   1.111       .  S
C213        C214   1.407   1_556  A
C213        C218   1.402       .  A
C213        H220   1.084       .  S
C214        C215   1.421       .  A
C215        C216   1.405       .  A
C215        C222   1.509       .  S
C216        C217   1.400       .  A
C216        H221   1.084       .  S
C217        C218   1.409   1_554  A
C218        C219   1.507       .  S
C219        H223   1.111       .  S
C219        H224   1.110       .  S
C219        H225   1.110       .  S
C222        H226   1.109       .  S
C222        H227   1.111       .  S
C222        H228   1.111       .  S
C229        C230   1.400       .  A
C229        C234   1.405       .  A
C229        H236   1.084       .  S
C230        C231   1.409       .  A
C231        C232   1.405       .  A
C231        C238   1.507       .  S
C232        C233   1.408       .  A
C232        H237   1.083       .  S
C233        C234   1.422       .  A
C234        C235   1.509       .  S
C235        H239   1.111       .  S
C235        H240   1.111       .  S
C235        H241   1.109       .  S
C238        H242   1.110       .  S
C238        H243   1.110       .  S
C238        H244   1.111       .  S
C245        C246   1.401       .  A
C245        C250   1.405       .  A
C245        H252   1.084       .  S
C246        C247   1.410   1_554  A
C247        C248   1.404       .  A
C247        C254   1.507       .  S
C248        C249   1.409   1_556  A
C248        H253   1.083       .  S
C249        C250   1.423       .  A
C250        C251   1.509       .  S
C251        H255   1.111       .  S
C251        H256   1.110       .  S
C251        H257   1.110       .  S
C254        H258   1.109       .  S
C254        H259   1.111       .  S
C254        H260   1.111       .  S
C261        C262   1.406       .  A
C261        C266   1.402       .  A
C261        H268   1.084       .  S
C262        C263   1.422       .  A
C263        C264   1.405       .  A
C263        C270   1.508       .  S
C264        C265   1.400       .  A
C264        H269   1.084       .  S
C265        C266   1.413       .  A
C266        C267   1.508       .  S
C267        H271   1.110       .  S
C267        H272   1.110       .  S
C267        H273   1.107       .  S
C270        H274   1.110       .  S
C270        H275   1.110       .  S
C270        H276   1.111       .  S
C277        C278   1.407       .  A
C277        C282   1.404       .  A
C277        H284   1.084       .  S
C278        C279   1.417       .  A
C279        C280   1.404       .  A
C279        C286   1.507       .  S
C280        C281   1.400       .  A
C280        H285   1.084       .  S
C281        C282   1.409       .  A
C282        C283   1.507       .  S
C283        H287   1.111       .  S
C283        H288   1.111       .  S
C283        H289   1.110       .  S
C286        H290   1.109   1_455  S
C286        H291   1.111       .  S
C286        H292   1.111       .  S
C293        C294   1.407   1_556  A
C293        C298   1.402       .  A
C293        H300   1.084       .  S
C294        C295   1.419       .  A
C295        C296   1.404       .  A
C295        C302   1.508       .  S
C296        C297   1.401   1_554  A
C296        H301   1.084       .  S
C297        C298   1.412       .  A
C298        C299   1.508       .  S
C299        H303   1.110       .  S
C299        H304   1.110       .  S
C299        H305   1.108       .  S
C302        H306   1.111       .  S
C302        H307   1.109       .  S
C302        H308   1.111       .  S
C309        C310   1.407       .  A
C309        C314   1.403       .  A
C309        H316   1.084       .  S
C310        C311   1.420   1_554  A
C311        C312   1.407       .  A
C311        C318   1.508       .  S
C312        C313   1.402   1_556  A
C312        H317   1.084       .  S
C313        C314   1.412       .  A
C314        C315   1.508       .  S
C315        H319   1.111       .  S
C315        H320   1.108       .  S
C315        H321   1.110       .  S
C318        H322   1.109       .  S
C318        H323   1.111       .  S
C318        H324   1.111       .  S
C325        C326   1.406   1_455  A
C325        C330   1.403       .  A
C325        H332   1.084   1_565  S
C326        C327   1.417       .  A
C327        C328   1.405       .  A
C327        C334   1.508       .  S
C328        C329   1.402       .  A
C328        H333   1.084       .  S
C329        C330   1.413   1_655  A
C330        C331   1.508   1_565  S
C331        H335   1.111       .  S
C331        H336   1.109       .  S
C331        H337   1.111   1_545  S
C334        H338   1.109   1_565  S
C334        H339   1.110       .  S
C334        H340   1.111       .  S
C341        C342   1.403       .  A
C341        C346   1.407       .  A
C341        H348   1.084   1_655  S
C342        C343   1.411   1_565  A
C343        C344   1.403       .  A
C343        C350   1.508       .  S
C344        C345   1.406   1_545  A
C344        H349   1.084       .  S
C345        C346   1.419       .  A
C346        C347   1.508   1_655  S
C347        H351   1.111       .  S
C347        H352   1.110       .  S
C347        H353   1.110   1_455  S
C350        H354   1.111   1_655  S
C350        H355   1.109       .  S
C350        H356   1.111       .  S
C357        C358   1.402       .  A
C357        C362   1.404       .  A
C357        H364   1.083       .  S
C358        C359   1.412       .  A
C359        C360   1.405   1_565  A
C359        C366   1.507       .  S
C360        C361   1.403       .  A
C360        H365   1.083       .  S
C361        C362   1.412   1_545  A
C362        C363   1.506       .  S
C363        H367   1.111       .  S
C363        H368   1.110       .  S
C363        H369   1.110   1_565  S
C366        H370   1.111       .  S
C366        H371   1.110       .  S
C366        H372   1.111   1_565  S
C373        C374   1.402       .  A
C373        C378   1.407       .  A
C373        H380   1.085       .  S
C374        C375   1.411       .  A
C375        C376   1.402       .  A
C375        C382   1.508       .  S
C376        C377   1.408       .  A
C376        H381   1.084       .  S
C377        C378   1.424       .  A
C378        C379   1.509       .  S
C379        H383   1.111       .  S
C379        H384   1.110       .  S
C379        H385   1.110       .  S
C382        H386   1.110       .  S
C382        H387   1.108       .  S
C382        H388   1.111       .  S
C389        C390   1.402       .  A
C389        C394   1.406       .  A
C389        H396   1.084       .  S
C390        C391   1.411       .  A
C391        C392   1.402       .  A
C391        C398   1.508       .  S
C392        C393   1.407       .  A
C392        H397   1.084       .  S
C393        C394   1.420       .  A
C394        C395   1.508       .  S
C395        H399   1.111       .  S
C395        H400   1.111       .  S
C395        H401   1.109       .  S
C398        H402   1.108       .  S
C398        H403   1.110       .  S
C398        H404   1.110       .  S
C405        C406   1.402   1_554  A
C405        C410   1.403   1_565  A
C405        H412   1.083       .  S
C406        C407   1.412       .  A
C407        C408   1.404       .  A
C407        C414   1.507       .  S
C408        C409   1.402   1_565  A
C408        H413   1.083   1_565  S
C409        C410   1.412   1_556  A
C410        C411   1.507       .  S
C411        H415   1.111       .  S
C411        H416   1.111       .  S
C411        H417   1.109       .  S
C414        H418   1.110       .  S
C414        H419   1.111       .  S
C414        H420   1.111       .  S
C421        C422   1.402       .  A
C421        C426   1.405       .  A
C421        H428   1.085       .  S
C422        C423   1.413   1_556  A
C423        C424   1.402       .  A
C423        C430   1.509       .  S
C424        C425   1.408   1_554  A
C424        H429   1.084       .  S
C425        C426   1.421       .  A
C426        C427   1.508       .  S
C427        H431   1.111       .  S
C427        H432   1.110       .  S
C427        H433   1.110       .  S
C430        H434   1.111       .  S
C430        H435   1.107       .  S
C430        H436   1.110       .  S
C437        C438   1.408   1_556  A
C437        C442   1.404       .  A
C437        H444   1.084       .  S
C438        C439   1.421       .  A
C439        C440   1.406       .  A
C439        C446   1.508       .  S
C440        C441   1.400   1_554  A
C440        H445   1.084       .  S
C441        C442   1.410       .  A
C442        C443   1.507       .  S
C443        H447   1.111       .  S
C443        H448   1.110       .  S
C443        H449   1.110       .  S
C446        H450   1.111       .  S
C446        H451   1.109       .  S
C446        H452   1.111       .  S
C453        C454   1.403       .  A
C453        C458   1.405       .  A
C453        H460   1.084       .  S
C454        C455   1.413       .  A
C455        C456   1.404   1_655  A
C455        C462   1.507       .  S
C456        C457   1.402       .  A
C456        H461   1.084       .  S
C457        C458   1.413   1_455  A
C458        C459   1.507       .  S
C459        H463   1.111       .  S
C459        H464   1.109       .  S
C459        H465   1.110   1_655  S
C462        H466   1.111       .  S
C462        H467   1.109       .  S
C462        H468   1.111       .  S
C469        C470   1.400       .  A
C469        C474   1.404       .  A
C469        H476   1.084       .  S
C470        C471   1.412       .  A
C471        C472   1.405       .  A
C471        C478   1.507       .  S
C472        C473   1.410       .  A
C472        H477   1.083       .  S
C473        C474   1.423       .  A
C474        C475   1.509       .  S
C475        H479   1.111       .  S
C475        H480   1.110   1_655  S
C475        H481   1.110       .  S
C478        H482   1.110       .  S
C478        H483   1.107       .  S
C478        H484   1.111       .  S
C485        C486   1.401       .  A
C485        C490   1.405       .  A
C485        H492   1.084       .  S
C486        C487   1.410       .  A
C487        C488   1.402       .  A
C487        C494   1.507       .  S
C488        C489   1.407       .  A
C488        H493   1.084       .  S
C489        C490   1.420       .  A
C490        C491   1.508       .  S
C491        H495   1.111       .  S
C491        H496   1.110       .  S
C491        H497   1.109       .  S
C494        H498   1.107       .  S
C494        H499   1.110       .  S
C494        H500   1.111       .  S
C501        C502   1.404       .  A
C501        C506   1.406       .  A
C501        H508   1.084       .  S
C502        C503   1.413   1_554  A
C503        C504   1.402   1_655  A
C503        C510   1.507       .  S
C504        C505   1.402   1_556  A
C504        H509   1.084       .  S
C505        C506   1.413   1_455  A
C506        C507   1.507   1_655  S
C507        H511   1.111   1_455  S
C507        H512   1.109   1_455  S
C507        H513   1.111       .  S
C510        H514   1.110       .  S
C510        H515   1.109       .  S
C510        H516   1.111   1_655  S
C517        C518   1.398   1_554  A
C517        C522   1.403       .  A
C517        H524   1.084       .  S
C518        C519   1.410       .  A
C519        C520   1.406       .  A
C519        C526   1.507       .  S
C520        C521   1.408       .  A
C520        H525   1.083       .  S
C521        C522   1.422   1_556  A
C522        C523   1.509       .  S
C523        H527   1.111       .  S
C523        H528   1.109       .  S
C523        H529   1.110       .  S
C526        H530   1.111       .  S
C526        H531   1.109       .  S
C526        H532   1.111       .  S
C533        C534   1.401   1_556  A
C533        C538   1.405       .  A
C533        H540   1.084       .  S
C534        C535   1.411       .  A
C535        C536   1.404       .  A
C535        C542   1.508       .  S
C536        C537   1.408   1_554  A
C536        H541   1.083       .  S
C537        C538   1.422       .  A
C538        C539   1.508       .  S
C539        H543   1.111       .  S
C539        H544   1.110       .  S
C539        H545   1.110       .  S
C542        H546   1.109       .  S
C542        H547   1.111       .  S
C542        H548   1.111       .  S
