geometry optimzed in LAMMPS
_audit_creation_date              2020-11-30 
_audit_creation_method            'lammps2cif' 
_symmetry_space_group_name_H-M    'P1' 
_symmetry_Int_Tables_number       1 
_symmetry_cell_setting            triclinic 
loop_ 
_symmetry_equiv_pos_as_xyz 
  x,y,z 
_cell_length_a                    66.66719137037927 
_cell_length_b                    66.83387867723312 
_cell_length_c                    66.67588087241283 
_cell_angle_alpha                 89.97554799163787 
_cell_angle_beta                  89.9933159928082 
_cell_angle_gamma                 90.02344565948312 
loop_ 
_atom_site_label 
_atom_site_type_symbol 
_atom_site_fract_x 
_atom_site_fract_y 
_atom_site_fract_z 
_atom_site_charge 
N1          N  0.64843023  0.15227913  0.80648466    -0.27450
N2          N  0.64678166  0.13331251  0.81185161    -0.35310
C3          C  0.64845116  0.12164730  0.79554876     0.00890
C4          C  0.65138401  0.13381175  0.77903288     0.06910
C5          C  0.65107931  0.15317012  0.78649046    -0.06190
H6          H  0.64807264  0.10546972  0.79584496     0.07580
H7          H  0.65361262  0.16682561  0.77814435     0.08780
Cu8        Cu  0.64458610  0.12374939  0.84115340     0.44170
Cu9        Cu  0.64912109  0.17571931  0.82701967     0.41990
Cu10       Cu  0.64667662  0.16129414  0.87970997     0.43880
N11         N  0.64629294  0.11716869  0.87129601    -0.34840
N12         N  0.64736876  0.13089906  0.88551818    -0.29090
C13         C  0.64939877  0.12176468  0.90337772    -0.05190
C14         C  0.64945679  0.10137375  0.90010029     0.07020
C15         C  0.64745879  0.09893076  0.87966348     0.00820
H16         H  0.65062807  0.12938202  0.91763832     0.08470
H17         H  0.64702087  0.08496564  0.87147430     0.07550
N18         N  0.64939071  0.19053878  0.86989886    -0.36290
N19         N  0.65092824  0.19578629  0.85082900    -0.28470
C20         C  0.65469602  0.21554217  0.84981879    -0.03710
C21         C  0.65551128  0.22305355  0.86916969     0.04900
C22         C  0.65188787  0.20680895  0.88148155     0.02990
H23         H  0.65701201  0.22374351  0.83602018     0.08100
H24         H  0.65206827  0.20662878  0.89770707     0.06930
N25         N  0.87062771  0.15342233  0.58545004    -0.27450
N26         N  0.87516970  0.13463618  0.58122093    -0.35310
C27         C  0.85846592  0.12341495  0.58221401     0.00890
C28         C  0.84262911  0.13571482  0.58731518     0.06910
C29         C  0.85088058  0.15460142  0.58943979    -0.06190
H30         H  0.85811293  0.10730473  0.58065820     0.07580
H31         H  0.84324634  0.16802836  0.59431378     0.08780
Cu32       Cu  0.90418511  0.12434589  0.57807142     0.44170
Cu33       Cu  0.89184863  0.17616286  0.58731675     0.41990
Cu34       Cu  0.94386758  0.16073012  0.58335352     0.43880
N35         N  0.93396527  0.11684565  0.58198569    -0.34840
N36         N  0.94850824  0.13010327  0.58420432    -0.29090
C37         C  0.96573048  0.12040108  0.58815868    -0.05190
C38         C  0.96172604  0.10008239  0.58867367     0.07020
C39         C  0.94151093  0.09837324  0.58441173     0.00820
H40         H  0.98005945  0.12760769  0.59059448     0.08470
H41         H  0.93281733  0.08472283  0.58360667     0.07550
N42         N  0.93490091  0.19022901  0.58650195    -0.36290
N43         N  0.91600014  0.19584526  0.58842415    -0.28470
C44         C  0.91544974  0.21566828  0.59182667    -0.03710
C45         C  0.93495940  0.22294985  0.59219963     0.04900
C46         C  0.94685084  0.20630795  0.58853423     0.02990
H47         H  0.90182703  0.22403105  0.59452707     0.08100
H48         H  0.96301631  0.20570234  0.58755347     0.06930
N49         N  0.91238970  0.42714000  0.80584831    -0.27450
N50         N  0.93094853  0.43231497  0.81048071    -0.35310
C51         C  0.94282703  0.42945271  0.79443703     0.00890
C52         C  0.93120840  0.42199007  0.77891484     0.06910
C53         C  0.91194966  0.42092004  0.78668459    -0.06190
H54         H  0.95878821  0.43232681  0.79429276     0.07580
H55         H  0.89872141  0.41521333  0.77922604     0.08780
Cu56       Cu  0.93973554  0.44077676  0.83898931     0.44170
Cu57       Cu  0.88890707  0.42695900  0.82630926     0.41990
Cu58       Cu  0.90177042  0.43844727  0.87782648     0.43880
N59         N  0.94587372  0.44337991  0.86927841    -0.34840
N60         N  0.93210881  0.44229439  0.88349643    -0.29090
C61         C  0.94125493  0.44238062  0.90146909    -0.05190
C62         C  0.96180034  0.44335482  0.89843140     0.07020
C63         C  0.96411389  0.44421370  0.87779725     0.00820
H64         H  0.93354485  0.44088825  0.91566992     0.08470
H65         H  0.97800383  0.44494278  0.86945711     0.07550
N66         N  0.87301510  0.43116791  0.86848664    -0.36290
N67         N  0.86839524  0.42660857  0.84975075    -0.28470
C68         C  0.84902370  0.42102925  0.84895775    -0.03710
C69         C  0.84099241  0.42240506  0.86805142     0.04900
C70         C  0.85667616  0.42873619  0.88007638     0.02990
H71         H  0.84145719  0.41590914  0.83555288     0.08100
H72         H  0.85644578  0.43062669  0.89619049     0.06930
N73         N  0.73603159  0.37549627  0.90056029    -0.27450
N74         N  0.73047100  0.39445829  0.90131900    -0.35310
C75         C  0.74644470  0.40612565  0.89753377     0.00890
C76         C  0.76295280  0.39401942  0.89403968     0.06910
C77         C  0.75576035  0.37463961  0.89636461    -0.06190
H78         H  0.74578836  0.42225060  0.89628391     0.07580
H79         H  0.76401605  0.36083467  0.89462718     0.08780
Cu80       Cu  0.70106738  0.40393134  0.90456719     0.44170
Cu81       Cu  0.71606200  0.35162527  0.90229595     0.41990
Cu82       Cu  0.66353601  0.36543736  0.90090415     0.43880
N83         N  0.67063803  0.40985012  0.90260722    -0.34840
N84         N  0.65694062  0.39569529  0.90080758    -0.29090
C85         C  0.63889732  0.40424639  0.89820768    -0.05190
C86         C  0.64126664  0.42486823  0.89826442     0.07020
C87         C  0.66165933  0.42781815  0.90132529     0.00820
H88         H  0.62513688  0.39597954  0.89591248     0.08470
H89         H  0.66954328  0.44190042  0.90250527     0.07550
N90         N  0.67360033  0.33617244  0.89966260    -0.36290
N91         N  0.69273824  0.33103834  0.90017901    -0.28470
C92         C  0.69418240  0.31117649  0.89724097    -0.03710
C93         C  0.67503226  0.30340941  0.89495564     0.04900
C94         C  0.66238919  0.31976334  0.89643280     0.02990
H95         H  0.70818650  0.30309064  0.89602815     0.08100
H96         H  0.64637860  0.32006501  0.89391375     0.06930
N97         N  0.96087145  0.37607411  0.67347177    -0.27450
N98         N  0.96102885  0.39493357  0.66749629    -0.35310
C99         C  0.95744470  0.40692775  0.68323521     0.00890
C100        C  0.95478991  0.39506867  0.69995779     0.06910
C101        C  0.95720039  0.37558123  0.69334001    -0.06190
H102        H  0.95588470  0.42301850  0.68237227     0.07580
H103        H  0.95532262  0.36206216  0.70207066     0.08780
Cu104      Cu  0.96346678  0.40362174  0.63798616     0.44170
Cu105      Cu  0.96310005  0.35223769  0.65346947     0.41990
Cu106      Cu  0.96679550  0.36587638  0.60003799     0.43880
N107        N  0.96384420  0.40992619  0.60777502    -0.34840
N108        N  0.96556030  0.39623263  0.59363737    -0.29090
C109        C  0.96461989  0.40529888  0.57564448    -0.05190
C110        C  0.96219010  0.42573122  0.57863270     0.07020
C111        C  0.96154284  0.42796969  0.59928059     0.00820
H112        H  0.96531983  0.39754014  0.56142504     0.08470
H113        H  0.95862084  0.44137599  0.60776516     0.07550
N114        N  0.96352082  0.33684844  0.61063015    -0.36290
N115        N  0.96232015  0.33186566  0.62982327    -0.28470
C116        C  0.95859125  0.31211368  0.63119653    -0.03710
C117        C  0.95715920  0.30442235  0.61201260     0.04900
C118        C  0.96046084  0.32044763  0.59934849     0.02990
H119        H  0.95607600  0.30414873  0.64510108     0.08100
H120        H  0.95983497  0.32036160  0.58313455     0.06930
N121        N  0.73462261  0.10605917  0.62879021    -0.27450
N122        N  0.72992290  0.10793881  0.60965803    -0.35310
C123        C  0.74669126  0.11130534  0.59904488     0.00890
C124        C  0.76290234  0.11172635  0.61206993     0.06910
C125        C  0.75458709  0.10813824  0.63086487    -0.06190
H126        H  0.74688802  0.11420616  0.58308402     0.07580
H127        H  0.76220101  0.10737939  0.64512849     0.08780
Cu128      Cu  0.70084865  0.10763752  0.59900211     0.44170
Cu129      Cu  0.71324188  0.10326650  0.65123001     0.41990
Cu130      Cu  0.66095550  0.10257653  0.63538962     0.43880
N131        N  0.67076147  0.10771044  0.59167076    -0.34840
N132        N  0.65615919  0.10540102  0.60485608    -0.29090
C133        C  0.63846786  0.10687784  0.59532943    -0.05190
C134        C  0.64209382  0.11021644  0.57513922     0.07020
C135        C  0.66279099  0.11082660  0.57344064     0.00820
H136        H  0.62400577  0.10594115  0.60263611     0.08470
H137        H  0.67157819  0.11423206  0.56028099     0.07550
N138        N  0.67003489  0.10497197  0.66497450    -0.36290
N139        N  0.68903190  0.10521017  0.67069127    -0.28470
C140        C  0.68986749  0.10906103  0.69045085    -0.03710
C141        C  0.67052371  0.11167917  0.69744261     0.04900
C142        C  0.65829162  0.10869079  0.68095355     0.02990
H143        H  0.70360156  0.11084859  0.69890800     0.08100
H144        H  0.64211807  0.10992939  0.68042845     0.06930
N145        N  0.23411698  0.42771497  0.84856476    -0.27450
N146        N  0.22878277  0.42960545  0.86756939    -0.35310
C147        C  0.24485250  0.42653769  0.87932400     0.00890
C148        C  0.26119045  0.42282013  0.86716941     0.06910
C149        C  0.25386909  0.42356095  0.84774042    -0.06190
H150        H  0.24453739  0.42643505  0.89554780     0.07580
H151        H  0.26207193  0.42036107  0.83411331     0.08780
Cu152      Cu  0.19975838  0.43493453  0.87696362     0.44170
Cu153      Cu  0.21360858  0.42868515  0.82503859     0.41990
Cu154      Cu  0.16172050  0.43943106  0.83898817     0.43880
N155        N  0.16981871  0.43965382  0.88332354    -0.34840
N156        N  0.15583639  0.44160637  0.86943915    -0.29090
C157        C  0.13789064  0.44341895  0.87845477    -0.05190
C158        C  0.14070382  0.44261457  0.89905977     0.07020
C159        C  0.16119548  0.44013747  0.90152316     0.00820
H160        H  0.12379138  0.44476106  0.87054118     0.08470
H161        H  0.16925389  0.43787183  0.91540709     0.07550
N162        N  0.17081117  0.43203923  0.81019130    -0.36290
N163        N  0.18953928  0.42791219  0.80514813    -0.28470
C164        C  0.18991536  0.42196133  0.78588305    -0.03710
C165        C  0.17048544  0.42216192  0.77842999     0.04900
C166        C  0.15882630  0.42886013  0.79428325     0.02990
H167        H  0.20328153  0.41703918  0.77812134     0.08100
H168        H  0.14275438  0.43099508  0.79447210     0.06930
N169        N  0.18689637  0.19521962  0.58630648    -0.27450
N170        N  0.16806427  0.18940201  0.58818076    -0.35310
C171        C  0.15640266  0.20548105  0.59139193     0.00890
C172        C  0.16841349  0.22242931  0.59142996     0.06910
C173        C  0.18770913  0.21524314  0.58820311    -0.06190
H174        H  0.14049605  0.20464978  0.59442688     0.07580
H175        H  0.20143325  0.22386524  0.58770302     0.08780
Cu176      Cu  0.15930474  0.15975792  0.58771594     0.44170
Cu177      Cu  0.21057087  0.17520402  0.58311407     0.41990
Cu178      Cu  0.19751845  0.12211811  0.58024236     0.43880
N179        N  0.15368842  0.12936366  0.58781774    -0.34840
N180        N  0.16746258  0.11550649  0.58475113    -0.29090
C181        C  0.15885751  0.09735405  0.58628477    -0.05190
C182        C  0.13866611  0.09992007  0.59074678     0.07020
C183        C  0.13601578  0.12046841  0.59145116     0.00820
H184        H  0.16680525  0.08342846  0.58413740     0.08470
H185        H  0.12230769  0.12847321  0.59473566     0.07550
N186        N  0.22669440  0.13286365  0.58099353    -0.36290
N187        N  0.23140783  0.15204439  0.58240716    -0.28470
C188        C  0.25134596  0.15369942  0.58499427    -0.03710
C189        C  0.25961821  0.13470386  0.58497955     0.04900
C190        C  0.24351985  0.12186209  0.58254050     0.02990
H191        H  0.25915344  0.16766194  0.58755502     0.08100
H192        H  0.24386286  0.10568510  0.58308722     0.06930
N193        N  0.45334605  0.15219803  0.80667388    -0.27450
N194        N  0.45297964  0.13307324  0.81169285    -0.35310
C195        C  0.45097775  0.12195294  0.79503467     0.00890
C196        C  0.44973102  0.13467076  0.77871102     0.06910
C197        C  0.45144841  0.15376244  0.78665265    -0.06190
H198        H  0.44938591  0.10584164  0.79494006     0.07580
H199        H  0.45080352  0.16779712  0.77859701     0.08780
Cu200      Cu  0.45272473  0.12298367  0.84099896     0.44170
Cu201      Cu  0.45437892  0.17523237  0.82749067     0.41990
Cu202      Cu  0.45786058  0.16054930  0.87972830     0.43880
N203        N  0.45146453  0.11673334  0.87133961    -0.34840
N204        N  0.45425679  0.13032314  0.88547589    -0.29090
C205        C  0.45304881  0.12142588  0.90351468    -0.05190
C206        C  0.44892104  0.10140296  0.90052273     0.07020
C207        C  0.44808737  0.09887311  0.87999672     0.00820
H208        H  0.45486077  0.12899704  0.91773890     0.08470
H209        H  0.44568025  0.08502651  0.87194744     0.07550
N210        N  0.45493240  0.18991609  0.87030032    -0.36290
N211        N  0.45316961  0.19519921  0.85127284    -0.28470
C212        C  0.44894917  0.21483873  0.85031061    -0.03710
C213        C  0.44791081  0.22226867  0.86966937     0.04900
C214        C  0.45200690  0.20608282  0.88194320     0.02990
H215        H  0.44631269  0.22295710  0.83652364     0.08100
H216        H  0.45171816  0.20581836  0.89816580     0.06930
N217        N  0.36609009  0.37535363  0.89743277    -0.27450
N218        N  0.37138671  0.39417807  0.90042146    -0.35310
C219        C  0.35528827  0.40597019  0.89768383     0.00890
C220        C  0.33899495  0.39406153  0.89274696     0.06910
C221        C  0.34652132  0.37471468  0.89258330    -0.06190
H222        H  0.35561232  0.42213702  0.89845416     0.07580
H223        H  0.33889470  0.36123706  0.88795852     0.08780
Cu224      Cu  0.40072049  0.40347699  0.90497680     0.44170
Cu225      Cu  0.38590771  0.35138031  0.89807898     0.41990
Cu226      Cu  0.43801799  0.36441919  0.90149056     0.43880
N227        N  0.43134130  0.40888701  0.90400872    -0.34840
N228        N  0.44485524  0.39452519  0.90246090    -0.29090
C229        C  0.46312624  0.40274697  0.90051789    -0.05190
C230        C  0.46113404  0.42336656  0.90097655     0.07020
C231        C  0.44070738  0.42669381  0.90313029     0.00820
H232        H  0.47669875  0.39423381  0.89810055     0.08470
H233        H  0.43313709  0.44099781  0.90364861     0.07550
N234        N  0.42802272  0.33529755  0.89897157    -0.36290
N235        N  0.40887351  0.33039162  0.89773164    -0.28470
C236        C  0.40744912  0.31054711  0.89472384    -0.03710
C237        C  0.42664125  0.30256118  0.89418278     0.04900
C238        C  0.43929515  0.31878587  0.89675058     0.02990
H239        H  0.39350113  0.30261431  0.89234413     0.08100
H240        H  0.45546358  0.31895707  0.89566954     0.06930
N241        N  0.41169949  0.10536018  0.67068851    -0.27450
N242        N  0.43079925  0.10332393  0.66575829    -0.35310
C243        C  0.44214627  0.10549723  0.68229683     0.00890
C244        C  0.42956252  0.10896152  0.69842577     0.06910
C245        C  0.41039754  0.10892886  0.69047310    -0.06190
H246        H  0.45837452  0.10574858  0.68236585     0.07580
H247        H  0.39657670  0.11213994  0.69834544     0.08780
Cu248      Cu  0.44074936  0.10095391  0.63646774     0.44170
Cu249      Cu  0.38832412  0.10568640  0.65017196     0.41990
Cu250      Cu  0.40235469  0.10592086  0.59813351     0.43880
N251        N  0.44684348  0.10460248  0.60626766    -0.34840
N252        N  0.43286126  0.10682466  0.59241546    -0.29090
C253        C  0.44171027  0.11071113  0.57474871    -0.05190
C254        C  0.46232365  0.11105251  0.57753737     0.07020
C255        C  0.46497472  0.10688619  0.59775481     0.00820
H256        H  0.43361979  0.11362748  0.56099599     0.08470
H257        H  0.47894587  0.10560361  0.60586281     0.07550
N258        N  0.37291797  0.10781229  0.60781116    -0.36290
N259        N  0.36777272  0.10803120  0.62694527    -0.28470
C260        C  0.34792769  0.11133238  0.62836848    -0.03710
C261        C  0.34020891  0.11337252  0.60917381     0.04900
C262        C  0.35648149  0.11084303  0.59652984     0.02990
H263        H  0.33984787  0.11259695  0.64237814     0.08100
H264        H  0.35655616  0.11215773  0.58035603     0.06930
N265        N  0.14154688  0.37633538  0.67276336    -0.27450
N266        N  0.14040979  0.39515418  0.66672397    -0.35310
C267        C  0.14365384  0.40732349  0.68244087     0.00890
C268        C  0.14697567  0.39560819  0.69917794     0.06910
C269        C  0.14542461  0.37604749  0.69258407    -0.06190
H270        H  0.14438506  0.42347303  0.68158010     0.07580
H271        H  0.14796508  0.36263721  0.70131292     0.08780
Cu272      Cu  0.13661879  0.40359607  0.63711885     0.44170
Cu273      Cu  0.14019367  0.35211285  0.65319523     0.41990
Cu274      Cu  0.13309838  0.36416191  0.60035497     0.43880
N275        N  0.13515922  0.40871221  0.60655796    -0.34840
N276        N  0.13365667  0.39431904  0.59303506    -0.28850
C277        C  0.13409160  0.40251801  0.57460118    -0.05190
C278        C  0.13598629  0.42298515  0.57674983     0.07020
C279        C  0.13664331  0.42643484  0.59713342     0.00820
H280        H  0.13361222  0.39417366  0.56070962     0.08470
H281        H  0.13846709  0.44070768  0.60456332     0.07550
N282        N  0.13757069  0.33538407  0.61109960    -0.36290
N283        N  0.14066598  0.33103615  0.63021701    -0.28470
C284        C  0.14554750  0.31155680  0.63175550    -0.03710
C285        C  0.14551157  0.30332237  0.61271547     0.04900
C286        C  0.14022035  0.31877289  0.60001914     0.02990
H287        H  0.14963694  0.30413618  0.64558677     0.08100
H288        H  0.13952063  0.31826684  0.58381607     0.06930
N289        N  0.46127984  0.82977125  0.84778473    -0.27450
N290        N  0.46168926  0.83508372  0.86688002    -0.35310
C291        C  0.45879301  0.81881007  0.87837923     0.00890
C292        C  0.45645693  0.80233080  0.86600211     0.06910
C293        C  0.45810038  0.80992143  0.84668439    -0.06190
H294        H  0.45728606  0.81924389  0.89452131     0.07580
H295        H  0.45645932  0.80173291  0.83279022     0.08780
Cu296      Cu  0.46352303  0.86436675  0.87679300     0.44170
Cu297      Cu  0.46273189  0.84993993  0.82396704     0.41990
Cu298      Cu  0.46294056  0.90201892  0.83844964     0.43880
N299        N  0.46173354  0.89467761  0.88280995    -0.34840
N300        N  0.46150879  0.90847003  0.86863219    -0.29090
C301        C  0.45890482  0.92652139  0.87705784    -0.05190
C302        C  0.45748384  0.92401936  0.89762053     0.07020
C303        C  0.45927510  0.90359206  0.90070494     0.00820
H304        H  0.45736688  0.94029587  0.86868377     0.08470
H305        H  0.45856875  0.89573387  0.91487608     0.07550
N306        N  0.46140622  0.89251070  0.80909249    -0.36290
N307        N  0.46142574  0.87352241  0.80354625    -0.28470
C308        C  0.45856109  0.87260989  0.78356796    -0.03710
C309        C  0.45670964  0.89196585  0.77631066     0.04900
C310        C  0.45842945  0.90413747  0.79294281     0.02990
H311        H  0.45682643  0.85889366  0.77513122     0.08100
H312        H  0.45677733  0.92023557  0.79340690     0.06930
N313        N  0.18962965  0.82924886  0.57524809    -0.27450
N314        N  0.17050917  0.83452924  0.57548484    -0.35310
C315        C  0.15919150  0.81819701  0.57875925     0.00890
C316        C  0.17168686  0.80177335  0.58092129     0.06910
C317        C  0.19090860  0.80939015  0.57837077    -0.06190
H318        H  0.14306425  0.81847363  0.58054102     0.07580
H319        H  0.20491155  0.80128280  0.57915466     0.08780
Cu320      Cu  0.16024462  0.86382114  0.57393349     0.44170
Cu321      Cu  0.21347949  0.84935150  0.57326299     0.41990
Cu322      Cu  0.19881905  0.90105863  0.57525454     0.43880
N323        N  0.15435368  0.89426890  0.57559483    -0.34840
N324        N  0.16874970  0.90782891  0.57613476    -0.29090
C325        C  0.16062362  0.92604685  0.57839425    -0.05190
C326        C  0.14001267  0.92395930  0.57909994     0.07020
C327        C  0.13655412  0.90356771  0.57748292     0.00820
H328        H  0.16925797  0.93958759  0.58035426     0.08470
H329        H  0.12218885  0.89604282  0.57793221     0.07550
N330        N  0.22821422  0.89180105  0.57620934    -0.36290
N331        N  0.23390907  0.87288987  0.57518153    -0.28470
C332        C  0.25394917  0.87203073  0.57764744    -0.03710
C333        C  0.26102780  0.89134875  0.58035113     0.04900
C334        C  0.24429027  0.90343436  0.57950146     0.02990
H335        H  0.26256144  0.85834210  0.57852680     0.08100
H336        H  0.24372351  0.91943808  0.58187928     0.06930
N337        N  0.18779357  0.61020172  0.80603129    -0.27450
N338        N  0.16913139  0.60500186  0.81022712    -0.35310
C339        C  0.15785075  0.60710498  0.79362302     0.00890
C340        C  0.17005235  0.61370490  0.77816006     0.06910
C341        C  0.18891169  0.61567566  0.78664847    -0.06190
H342        H  0.14189973  0.60420650  0.79289040     0.07580
H343        H  0.20231313  0.62144387  0.77958104     0.08780
Cu344      Cu  0.15989291  0.59611560  0.83861554     0.44170
Cu345      Cu  0.21064907  0.61058507  0.82714616     0.41990
Cu346      Cu  0.19793967  0.59544274  0.87785225     0.43880
N347        N  0.15400994  0.58933882  0.86844990    -0.34840
N348        N  0.16776766  0.58903784  0.88273184    -0.29090
C349        C  0.15873905  0.58535530  0.90041665    -0.05190
C350        C  0.13828110  0.58343574  0.89718260     0.07020
C351        C  0.13591710  0.58587091  0.87666571     0.00820
H352        H  0.16640458  0.58499291  0.91471313     0.08470
H353        H  0.12204485  0.58550209  0.86827116     0.07550
N354        N  0.22641155  0.60494857  0.86925991    -0.36290
N355        N  0.23087219  0.61068823  0.85080190    -0.28470
C356        C  0.24997971  0.61711573  0.85033664    -0.03710
C357        C  0.25791992  0.61552811  0.86944665     0.04900
C358        C  0.24264925  0.60750114  0.88101007     0.02990
H359        H  0.25745068  0.62283613  0.83711623     0.08100
H360        H  0.24310634  0.60436360  0.89692315     0.06930
N361        N  0.41269992  0.69580391  0.89505539    -0.27450
N362        N  0.43171248  0.69034839  0.89652120    -0.35310
C363        C  0.44349673  0.70635288  0.89320294     0.00890
C364        C  0.43134219  0.72258637  0.88912302     0.06910
C365        C  0.41190033  0.71543184  0.89060266    -0.06190
H366        H  0.45971039  0.70593892  0.89264014     0.07580
H367        H  0.39822764  0.72368443  0.88778944     0.08780
Cu368      Cu  0.44092200  0.66095248  0.89996041     0.44170
Cu369      Cu  0.38881632  0.67583848  0.89689548     0.41990
Cu370      Cu  0.40183876  0.62326646  0.89942768     0.43880
N371        N  0.44648771  0.63046092  0.90035951    -0.34840
N372        N  0.43222247  0.61670166  0.90050849    -0.29090
C373        C  0.44075462  0.59847074  0.90032096    -0.05190
C374        C  0.46133966  0.60092994  0.89999673     0.07020
C375        C  0.46447110  0.62136032  0.89985075     0.00820
H376        H  0.43258954  0.58448305  0.89994183     0.08470
H377        H  0.47874635  0.62904263  0.89924722     0.07550
N378        N  0.37264399  0.63360683  0.89658051    -0.36290
N379        N  0.36786079  0.65277729  0.89600085    -0.28470
C380        C  0.34796218  0.65445059  0.89318439    -0.03710
C381        C  0.33969451  0.63540873  0.89184226     0.04900
C382        C  0.35594489  0.62259249  0.89400326     0.02990
H383        H  0.34018762  0.66857773  0.89175311     0.08100
H384        H  0.35593147  0.60646282  0.89284848     0.06930
N385        N  0.14152728  0.65329427  0.67002625    -0.27450
N386        N  0.14070255  0.63414099  0.66515007    -0.35310
C387        C  0.14304611  0.62298993  0.68175871     0.00890
C388        C  0.14516783  0.63568520  0.69797298     0.06910
C389        C  0.14426784  0.65481556  0.68998477    -0.06190
H390        H  0.14378160  0.60681870  0.68193304     0.07580
H391        H  0.14639731  0.66875361  0.69795331     0.08780
Cu392      Cu  0.13807136  0.62384871  0.63603510     0.44170
Cu393      Cu  0.14094113  0.67617058  0.64881252     0.41990
Cu394      Cu  0.13614225  0.66068003  0.59651084     0.43880
N395        N  0.13731047  0.61662364  0.60590488    -0.34840
N396        N  0.13671455  0.63004636  0.59135761    -0.29090
C397        C  0.13774183  0.62053257  0.57361073    -0.05190
C398        C  0.13880439  0.60014990  0.57719627     0.07020
C399        C  0.13863299  0.59824238  0.59784926     0.00820
H400        H  0.13802834  0.62791265  0.55916745     0.08470
H401        H  0.14032039  0.58465015  0.60647809     0.07550
N402        N  0.13929253  0.69022260  0.60561881    -0.36290
N403        N  0.14156531  0.69578611  0.62452971    -0.28470
C404        C  0.14546636  0.71553571  0.62505989    -0.03710
C405        C  0.14532729  0.72279983  0.60562020     0.04900
C406        C  0.14148158  0.70632188  0.59367838     0.02990
H407        H  0.14882626  0.72388037  0.63854947     0.08100
H408        H  0.14137605  0.70587148  0.57745826     0.06930
N409        N  0.36733589  0.91871388  0.62582809    -0.27450
N410        N  0.37262087  0.92178865  0.60698081    -0.35310
C411        C  0.35649720  0.91946255  0.59512950     0.00890
C412        C  0.34015779  0.91474483  0.60705037     0.06910
C413        C  0.34764275  0.91436035  0.62646540    -0.06190
H414        H  0.35677976  0.92071669  0.57895512     0.07580
H415        H  0.33963730  0.91034927  0.63999021     0.08780
Cu416      Cu  0.40176019  0.92721986  0.59792408     0.44170
Cu417      Cu  0.38754890  0.91921323  0.64952538     0.41990
Cu418      Cu  0.43945842  0.93013958  0.63658279     0.43880
N419        N  0.43211586  0.92956220  0.59211698    -0.34840
N420        N  0.44596358  0.93084854  0.60621724    -0.29090
C421        C  0.46417895  0.93080958  0.59755543    -0.05190
C422        C  0.46168737  0.92916682  0.57696014     0.07020
C423        C  0.44110953  0.92861075  0.57412421     0.00820
H424        H  0.47813063  0.93166839  0.60577090     0.08470
H425        H  0.43321195  0.92685725  0.56006130     0.07550
N426        N  0.42967993  0.92411736  0.66545116    -0.36290
N427        N  0.41089492  0.91983931  0.67014732    -0.28470
C428        C  0.40999746  0.91483564  0.68967012    -0.03710
C429        C  0.42912276  0.91618504  0.69771071     0.04900
C430        C  0.44120149  0.92196843  0.68184731     0.02990
H431        H  0.39659881  0.90942403  0.69700161     0.08100
H432        H  0.45732471  0.92381586  0.68204382     0.06930
N433        N  0.91135510  0.83065874  0.57815665    -0.27450
N434        N  0.92999710  0.83558698  0.57353872    -0.35310
C435        C  0.94181056  0.81940630  0.57539172     0.00890
C436        C  0.93012200  0.80343997  0.58163101     0.06910
C437        C  0.91083694  0.81111742  0.58299888    -0.06190
H438        H  0.95781756  0.81949469  0.57278799     0.07580
H439        H  0.89755361  0.80330016  0.58806010     0.08780
Cu440      Cu  0.93938595  0.86449292  0.56774462     0.44170
Cu441      Cu  0.88785135  0.85114333  0.57945310     0.41990
Cu442      Cu  0.90184858  0.90285689  0.57114006     0.43880
N443        N  0.94607461  0.89461973  0.56960287    -0.34840
N444        N  0.93228120  0.90865538  0.57171420    -0.29090
C445        C  0.94135576  0.92622817  0.57545065    -0.05190
C446        C  0.96183217  0.92304990  0.57550169     0.07020
C447        C  0.96433028  0.90291642  0.57157910     0.00820
H448        H  0.93361860  0.94018636  0.57820415     0.08470
H449        H  0.97832449  0.89473441  0.57117104     0.07550
N450        N  0.87266103  0.89348416  0.57556493    -0.36290
N451        N  0.86758319  0.87484926  0.57969559    -0.28470
C452        C  0.84796900  0.87436274  0.58436912    -0.03710
C453        C  0.84017288  0.89366702  0.58311603     0.04900
C454        C  0.85642685  0.90525973  0.57711234     0.02990
H455        H  0.84019911  0.86093714  0.58900624     0.08100
H456        H  0.85687689  0.92114027  0.57427020     0.06930
N457        N  0.64085720  0.82981764  0.84800538    -0.27450
N458        N  0.64067094  0.83556029  0.86697139    -0.35310
C459        C  0.64382881  0.81961239  0.87881058     0.00890
C460        C  0.64626559  0.80295435  0.86676015     0.06910
C461        C  0.64405341  0.80994198  0.84730530    -0.06190
H462        H  0.64476057  0.82025470  0.89499290     0.07580
H463        H  0.64564318  0.80138498  0.83362694     0.08780
Cu464      Cu  0.63831282  0.86495449  0.87613438     0.44170
Cu465      Cu  0.63890421  0.84974206  0.82408925     0.41990
Cu466      Cu  0.63253922  0.90210268  0.83755033     0.43880
N467        N  0.63849305  0.89532526  0.88169185    -0.34840
N468        N  0.63598868  0.90898686  0.86758834    -0.29090
C469        C  0.63778547  0.92725404  0.87581081    -0.05190
C470        C  0.64158100  0.92491722  0.89607574     0.07020
C471        C  0.64205728  0.90449580  0.89926119     0.00820
H472        H  0.63721141  0.94110811  0.86745282     0.08470
H473        H  0.64493995  0.89686051  0.91327945     0.07550
N474        N  0.63532695  0.89204129  0.80835699    -0.36290
N475        N  0.63838341  0.87310778  0.80344509    -0.28470
C476        C  0.64260912  0.87210344  0.78373458    -0.03710
C477        C  0.64184017  0.89124837  0.77589581     0.04900
C478        C  0.63729883  0.90351927  0.79190817     0.02990
H479        H  0.64686623  0.85858673  0.77589531     0.08100
H480        H  0.63686881  0.91970174  0.79188766     0.06930
N481        N  0.86893306  0.61082747  0.85028159    -0.27450
N482        N  0.87402587  0.60715310  0.86910714    -0.35310
C483        C  0.85794983  0.61018322  0.88096224     0.00890
C484        C  0.84203417  0.61608305  0.86900735     0.06910
C485        C  0.84947243  0.61611088  0.84965099    -0.06190
H486        H  0.85786302  0.60830457  0.89707975     0.07580
H487        H  0.84142845  0.62009425  0.83613540     0.08780
Cu488      Cu  0.90270984  0.59846751  0.87782477     0.44170
Cu489      Cu  0.88881127  0.60967704  0.82628537     0.41990
Cu490      Cu  0.93958603  0.59522707  0.83775297     0.43880
N491        N  0.93262698  0.59079205  0.88234756    -0.34840
N492        N  0.94595761  0.58958265  0.86770680    -0.29090
C493        C  0.96405482  0.58546571  0.87559487    -0.05190
C494        C  0.96211439  0.58418854  0.89622966     0.07020
C495        C  0.94193650  0.58742616  0.89995100     0.00820
H496        H  0.97760887  0.58374968  0.86687039     0.08470
H497        H  0.93471894  0.58812535  0.91446832     0.07550
N498        N  0.93029047  0.60372865  0.80928143    -0.36290
N499        N  0.91168727  0.60914290  0.80510279    -0.28470
C500        C  0.91068236  0.61470072  0.78572975    -0.03710
C501        C  0.92950498  0.61246325  0.77720558     0.04900
C502        C  0.94160348  0.60565944  0.79266928     0.02990
H503        H  0.89728385  0.62021826  0.77843560     0.08100
H504        H  0.95757536  0.60286246  0.79204244     0.06930
N505        N  0.95890681  0.65420822  0.66906203    -0.27450
N506        N  0.95900752  0.63502433  0.66423633    -0.35310
C507        C  0.95554163  0.62409228  0.68081525     0.00890
C508        C  0.95290383  0.63693987  0.69691919     0.06910
C509        C  0.95536398  0.65595052  0.68886336    -0.06190
H510        H  0.95408006  0.60797080  0.68093193     0.07580
H511        H  0.95427948  0.67009181  0.69665469     0.08780
Cu512      Cu  0.96166464  0.62440078  0.63508291     0.44170
Cu513      Cu  0.96128824  0.67725620  0.64817842     0.41990
Cu514      Cu  0.96375720  0.66177942  0.59615585     0.43880
N515        N  0.96181946  0.61763039  0.60468289    -0.34840
N516        N  0.96266626  0.63138542  0.59046918    -0.29090
C517        C  0.96159445  0.62243175  0.57245205    -0.05190
C518        C  0.95972106  0.60201817  0.57543606     0.07020
C519        C  0.96020132  0.59950967  0.59606041     0.00820
H520        H  0.96240050  0.63030260  0.55831797     0.08470
H521        H  0.95902381  0.58555388  0.60420658     0.07550
N522        N  0.96069845  0.69123780  0.60512049    -0.36290
N523        N  0.95993428  0.69701932  0.62407812    -0.28470
C524        C  0.95600370  0.71676834  0.62468058    -0.03710
C525        C  0.95397830  0.72358437  0.60519861     0.04900
C526        C  0.95716939  0.70706549  0.59318277     0.02990
H527        H  0.95366337  0.72528354  0.63827614     0.08100
H528        H  0.95605735  0.70640071  0.57700825     0.06930
N529        N  0.73232363  0.65280002  0.89541529    -0.27450
N530        N  0.72737752  0.63365344  0.89635255    -0.35310
C531        C  0.74390197  0.62246978  0.89350871     0.00890
C532        C  0.76008145  0.63514043  0.89057819     0.06910
C533        C  0.75218801  0.65426198  0.89208447    -0.06190
H534        H  0.74400827  0.60628849  0.89323525     0.07580
H535        H  0.76014453  0.66821712  0.88997186     0.08780
Cu536      Cu  0.69824123  0.62328352  0.89979117     0.44170
Cu537      Cu  0.71157666  0.67607874  0.89649246     0.41990
Cu538      Cu  0.65973569  0.66097882  0.90165997     0.43880
N539        N  0.66784151  0.61677837  0.90097231    -0.34840
N540        N  0.65379880  0.63068508  0.90181563    -0.29090
C541        C  0.63568246  0.62191596  0.90122286    -0.05190
C542        C  0.63838422  0.60141280  0.90002600     0.07020
C543        C  0.65900479  0.59872490  0.89982070     0.00820
H544        H  0.62164318  0.63000535  0.90080769     0.08470
H545        H  0.66701895  0.58470492  0.89861773     0.07550
N546        N  0.66859425  0.69019618  0.89704348    -0.36290
N547        N  0.68748758  0.69586646  0.89505955    -0.28470
C548        C  0.68789989  0.71551725  0.89065412    -0.03710
C549        C  0.66832743  0.72240178  0.88954548     0.04900
C550        C  0.65650955  0.70597586  0.89392606     0.02990
H551        H  0.70140284  0.72400104  0.88768197     0.08100
H552        H  0.64032686  0.70536620  0.89466951     0.06930
N553        N  0.73235676  0.91991466  0.62499985    -0.27450
N554        N  0.72772019  0.92555511  0.60655877    -0.35310
C555        C  0.74395626  0.92356669  0.59474832     0.00890
C556        C  0.75946006  0.91626490  0.60634008     0.06910
C557        C  0.75166552  0.91411296  0.62541344    -0.06190
H558        H  0.74419820  0.92639611  0.57877313     0.07580
H559        H  0.75927848  0.90821425  0.63846585     0.08780
Cu560      Cu  0.69892990  0.93297167  0.59771881     0.44170
Cu561      Cu  0.71184994  0.91898553  0.64838574     0.41990
Cu562      Cu  0.66000962  0.92815340  0.63546779     0.43880
N563        N  0.66856684  0.93338507  0.59137641    -0.34840
N564        N  0.65437438  0.93117042  0.60502970    -0.29090
C565        C  0.63651655  0.93002456  0.59574675    -0.05190
C566        C  0.63960595  0.93137216  0.57523547     0.07020
C567        C  0.66013344  0.93380272  0.57307866     0.00820
H568        H  0.62236403  0.92768510  0.60334010     0.08470
H569        H  0.66852227  0.93574388  0.55937389     0.07550
N570        N  0.66974485  0.92247015  0.66444946    -0.36290
N571        N  0.68860009  0.91874183  0.66906811    -0.28470
C572        C  0.68979634  0.91418070  0.68865053    -0.03710
C573        C  0.67067475  0.91518052  0.69712972     0.04900
C574        C  0.65844850  0.92052195  0.68101626     0.02990
H575        H  0.70373855  0.90994102  0.69558787     0.08100
H576        H  0.64234180  0.92223589  0.68094221     0.06930
N577        N  0.18732149  0.60871403  0.16797452    -0.27450
N578        N  0.16872054  0.60344691  0.16361031    -0.35310
C579        C  0.15724040  0.60564694  0.18007787     0.00890
C580        C  0.16920605  0.61255767  0.19565345     0.06910
C581        C  0.18818157  0.61433559  0.18730392    -0.06190
H582        H  0.14121775  0.60315669  0.18036588     0.07580
H583        H  0.20164644  0.61962233  0.19464253     0.08780
Cu584      Cu  0.15965075  0.59469444  0.13509146     0.44170
Cu585      Cu  0.21054484  0.60943047  0.14724790     0.41990
Cu586      Cu  0.19791278  0.59670270  0.09623551     0.43880
N587        N  0.15426742  0.58837378  0.10502943    -0.34840
N588        N  0.16812857  0.58938861  0.09089428    -0.29090
C589        C  0.15953362  0.58595778  0.07297121    -0.05190
C590        C  0.13925990  0.58229713  0.07590188     0.07020
C591        C  0.13651419  0.58412609  0.09645112     0.00820
H592        H  0.16739456  0.58731307  0.05888444     0.08470
H593        H  0.12248956  0.58300531  0.10454104     0.07550
N594        N  0.22642348  0.60546604  0.10511744    -0.36290
N595        N  0.23099073  0.61026478  0.12378139    -0.28470
C596        C  0.25031863  0.61595837  0.12453446    -0.03710
C597        C  0.25839364  0.61480252  0.10538622     0.04900
C598        C  0.24275226  0.60789875  0.09350711     0.02990
H599        H  0.25781079  0.62099095  0.13801061     0.08100
H600        H  0.24310916  0.60472833  0.07761525     0.06930
N601        N  0.18926108  0.82779589  0.39936720    -0.27450
N602        N  0.17021400  0.83322611  0.39981092    -0.35310
C603        C  0.15858180  0.81701545  0.39716751     0.00890
C604        C  0.17084231  0.80044143  0.39494401     0.06910
C605        C  0.19022942  0.80791086  0.39638020    -0.06190
H606        H  0.14243477  0.81754144  0.39571205     0.07580
H607        H  0.20405846  0.79962246  0.39467873     0.08780
Cu608      Cu  0.16077276  0.86261037  0.40124838     0.44170
Cu609      Cu  0.21294265  0.84809136  0.40036046     0.41990
Cu610      Cu  0.19894635  0.90074100  0.39939227     0.43880
N611        N  0.15459902  0.89282693  0.39951357    -0.34840
N612        N  0.16854634  0.90686214  0.39881487    -0.29090
C613        C  0.15964760  0.92479166  0.39673831    -0.05190
C614        C  0.13911199  0.92186335  0.39633623     0.07020
C615        C  0.13646123  0.90140477  0.39789606     0.00820
H616        H  0.16754118  0.93887800  0.39540604     0.08470
H617        H  0.12241017  0.89330717  0.39746584     0.07550
N618        N  0.22817308  0.89058937  0.39723778    -0.36290
N619        N  0.23336966  0.87151041  0.39767771    -0.28470
C620        C  0.25321068  0.87007409  0.39425618    -0.03710
C621        C  0.26082332  0.88916834  0.39119324     0.04900
C622        C  0.24450646  0.90175629  0.39348244     0.02990
H623        H  0.26126197  0.85607336  0.39384655     0.08100
H624        H  0.24432659  0.91783038  0.39154640     0.06930
N625        N  0.46254581  0.82840361  0.12738155    -0.27450
N626        N  0.46420587  0.83354636  0.10831077    -0.35310
C627        C  0.46093230  0.81743766  0.09672309     0.00890
C628        C  0.45666716  0.80140395  0.10904745     0.06910
C629        C  0.45801205  0.80879592  0.12842434    -0.06190
H630        H  0.46026451  0.81771505  0.08051151     0.07580
H631        H  0.45485739  0.80078091  0.14216976     0.08780
Cu632      Cu  0.46664320  0.86272525  0.09865361     0.44170
Cu633      Cu  0.46366465  0.84912485  0.15065283     0.41990
Cu634      Cu  0.46305973  0.90183215  0.13554402     0.43880
N635        N  0.46320221  0.89252334  0.09151433    -0.34840
N636        N  0.46190209  0.90701297  0.10490780    -0.29090
C637        C  0.45839691  0.92437318  0.09531091    -0.05190
C638        C  0.45754479  0.92057801  0.07489171     0.07020
C639        C  0.46045078  0.90016445  0.07310918     0.00820
H640        H  0.45636338  0.93865944  0.10265994     0.08470
H641        H  0.45964624  0.89121386  0.05965659     0.07550
N642        N  0.46108466  0.89204765  0.16499907    -0.36290
N643        N  0.46142656  0.87304369  0.17051704    -0.28470
C644        C  0.45803422  0.87193467  0.19037567    -0.03710
C645        C  0.45508568  0.89114571  0.19772345     0.04900
C646        C  0.45739296  0.90347403  0.18116805     0.02990
H647        H  0.45724309  0.85804222  0.19864449     0.08100
H648        H  0.45540512  0.91953086  0.18066581     0.06930
N649        N  0.36765938  0.65302378  0.07829490    -0.27450
N650        N  0.37253638  0.63383858  0.07830762    -0.35310
C651        C  0.35597732  0.62283211  0.08161718     0.00890
C652        C  0.33991552  0.63569757  0.08374114     0.06910
C653        C  0.34778343  0.65471232  0.08147491    -0.06190
H654        H  0.35577911  0.60671791  0.08315764     0.07580
H655        H  0.33984385  0.66873903  0.08304233     0.08780
Cu656      Cu  0.40165340  0.62337653  0.07581941     0.44170
Cu657      Cu  0.38868405  0.67597534  0.07649786     0.41990
Cu658      Cu  0.44089400  0.66045432  0.07411319     0.43880
N659        N  0.43189142  0.61636957  0.07529521    -0.34840
N660        N  0.44627909  0.62994712  0.07462771    -0.29090
C661        C  0.46414908  0.62068295  0.07550836    -0.05190
C662        C  0.46088707  0.60023890  0.07670719     0.07020
C663        C  0.44020565  0.59809712  0.07660150     0.00820
H664        H  0.47846393  0.62831317  0.07548555     0.08470
H665        H  0.43173449  0.58437571  0.07809512     0.07550
N666        N  0.43181239  0.68994426  0.07694169    -0.36290
N667        N  0.41285187  0.69564228  0.07785682    -0.28470
C668        C  0.41220829  0.71541602  0.08153894    -0.03710
C669        C  0.43170173  0.72256935  0.08299441     0.04900
C670        C  0.44370110  0.70590594  0.08001122     0.02990
H671        H  0.39851161  0.72382695  0.08365276     0.08100
H672        H  0.45985874  0.70511151  0.08117993     0.06930
N673        N  0.41120944  0.92069816  0.30398151    -0.27450
N674        N  0.43001844  0.92463194  0.30891296    -0.35310
C675        C  0.44165610  0.92284763  0.29252771     0.00890
C676        C  0.42960100  0.91755883  0.27650352     0.06910
C677        C  0.41043163  0.91614133  0.28434980    -0.06190
H678        H  0.45782164  0.92429189  0.29249538     0.07580
H679        H  0.39700007  0.91155871  0.27648538     0.08780
Cu680      Cu  0.43950184  0.92970171  0.33806069     0.44170
Cu681      Cu  0.38758698  0.92034113  0.32434246     0.41990
Cu682      Cu  0.40090442  0.92842036  0.37615203     0.43880
N683        N  0.44535565  0.93086371  0.36855441    -0.34840
N684        N  0.43120149  0.93051501  0.38242315    -0.29090
C685        C  0.43981444  0.93029903  0.40063430    -0.05190
C686        C  0.46043190  0.93053638  0.39815344     0.07020
C687        C  0.46338579  0.93079796  0.37758981     0.00820
H688        H  0.43161822  0.92918290  0.41459018     0.08470
H689        H  0.47759157  0.93063397  0.36974588     0.07550
N690        N  0.37184000  0.92333858  0.36661859    -0.36290
N691        N  0.36690540  0.92021302  0.34768115    -0.28470
C692        C  0.34720318  0.91596524  0.34670191    -0.03710
C693        C  0.33932379  0.91664557  0.36593069     0.04900
C694        C  0.35546090  0.92116233  0.37817621     0.02990
H695        H  0.33931354  0.91206006  0.33307428     0.08100
H696        H  0.35549660  0.92189552  0.39438737     0.06930
N697        N  0.14138780  0.65328137  0.30444584    -0.27450
N698        N  0.14156340  0.63403268  0.30897572    -0.35310
C699        C  0.14475211  0.62337855  0.29217200     0.00890
C700        C  0.14698620  0.63654540  0.27630533     0.06910
C701        C  0.14451426  0.65539380  0.28462366    -0.06190
H702        H  0.14623516  0.60726551  0.29168278     0.07580
H703        H  0.14509956  0.66964501  0.27698955     0.08780
Cu704      Cu  0.13935014  0.62329291  0.33803325     0.44170
Cu705      Cu  0.13894811  0.67577021  0.32580180     0.41990
Cu706      Cu  0.13270110  0.65993018  0.37757139     0.43880
N707        N  0.13796210  0.61613252  0.36822778    -0.34840
N708        N  0.13476868  0.62933543  0.38259824    -0.29090
C709        C  0.13523324  0.61989148  0.40039584    -0.05190
C710        C  0.13904361  0.59968528  0.39719318     0.07020
C711        C  0.14080040  0.59801467  0.37649348     0.00820
H712        H  0.13332134  0.62737602  0.41464059     0.08470
H713        H  0.14467270  0.58488383  0.36789595     0.07550
N714        N  0.13726913  0.68944897  0.36897837    -0.36290
N715        N  0.13984987  0.69513606  0.35014580    -0.28470
C716        C  0.14516525  0.71454963  0.34984449    -0.03710
C717        C  0.14616282  0.72134919  0.36942097     0.04900
C718        C  0.14079390  0.70513302  0.38113966     0.02990
H719        H  0.14898925  0.72283587  0.33643324     0.08100
H720        H  0.14072119  0.70444024  0.39735160     0.06930
N721        N  0.63862027  0.82884814  0.12713450    -0.27450
N722        N  0.63792363  0.83414295  0.10804597    -0.35310
C723        C  0.64104971  0.81800845  0.09648050     0.00890
C724        C  0.64391548  0.80172352  0.10886083     0.06910
C725        C  0.64213756  0.80902487  0.12821384    -0.06190
H726        H  0.64225530  0.81831776  0.08030031     0.07580
H727        H  0.64444404  0.80079700  0.14199764     0.08780
Cu728      Cu  0.63584822  0.86330320  0.09841212     0.44170
Cu729      Cu  0.63760648  0.84967287  0.15036061     0.41990
Cu730      Cu  0.63672420  0.90253102  0.13518018     0.43880
N731        N  0.63773901  0.89316746  0.09120609    -0.34840
N732        N  0.63800653  0.90773915  0.10456752    -0.29090
C733        C  0.64070633  0.92523729  0.09496713    -0.05190
C734        C  0.64207705  0.92141832  0.07458638     0.07020
C735        C  0.64032601  0.90088757  0.07281510     0.00820
H736        H  0.64193658  0.93962724  0.10229334     0.08470
H737        H  0.64186862  0.89197350  0.05939674     0.07550
N738        N  0.63899968  0.89279216  0.16461591    -0.36290
N739        N  0.63942087  0.87377551  0.17010978    -0.28470
C740        C  0.64289600  0.87281455  0.18995453    -0.03710
C741        C  0.64473691  0.89211963  0.19737749     0.04900
C742        C  0.64218183  0.90436853  0.18080232     0.02990
H743        H  0.64459148  0.85900527  0.19824939     0.08100
H744        H  0.64371152  0.92046763  0.18023569     0.06930
N745        N  0.90983175  0.83035447  0.39731546    -0.27450
N746        N  0.92897510  0.83508861  0.39944396    -0.35310
C747        C  0.94022351  0.81865235  0.39649975     0.00890
C748        C  0.92761137  0.80284803  0.39202727     0.06910
C749        C  0.90842153  0.81075932  0.39291727    -0.06190
H750        H  0.95645202  0.81847057  0.39648406     0.07580
H751        H  0.89444143  0.80302305  0.39021589     0.08780
Cu752      Cu  0.93928732  0.86407622  0.40317398     0.44170
Cu753      Cu  0.88659000  0.85111215  0.39815066     0.41990
Cu754      Cu  0.90177948  0.90294571  0.40177730     0.43880
N755        N  0.94601400  0.89425348  0.40114037    -0.34840
N756        N  0.93224321  0.90843943  0.40027778    -0.29090
C757        C  0.94125448  0.92611940  0.39693324    -0.05190
C758        C  0.96171236  0.92290033  0.39557024     0.07020
C759        C  0.96419639  0.90254906  0.39852520     0.00820
H760        H  0.93342630  0.94021545  0.39545258     0.08470
H761        H  0.97812565  0.89426178  0.39804177     0.07550
N762        N  0.87231890  0.89392945  0.39849989    -0.36290
N763        N  0.86668321  0.87504910  0.39684483    -0.28470
C764        C  0.84694004  0.87448938  0.39270282    -0.03710
C765        C  0.83982769  0.89397173  0.39149665     0.04900
C766        C  0.85638087  0.90585804  0.39552001     0.02990
H767        H  0.83860039  0.86091067  0.38978325     0.08100
H768        H  0.85705698  0.92201280  0.39583561     0.06930
N769        N  0.86855928  0.60796218  0.12492504    -0.27450
N770        N  0.87386391  0.60495664  0.10608241    -0.35310
C771        C  0.85790512  0.60802575  0.09413683     0.00890
C772        C  0.84157261  0.61297809  0.10603381     0.06910
C773        C  0.84902004  0.61290751  0.12547391    -0.06190
H774        H  0.85863624  0.60764334  0.07797576     0.07580
H775        H  0.84090374  0.61658054  0.13903289     0.08780
Cu776      Cu  0.90278331  0.59766773  0.09738530     0.44170
Cu777      Cu  0.88865368  0.60699286  0.14872900     0.41990
Cu778      Cu  0.94087627  0.59708157  0.13601848     0.43880
N779        N  0.93257224  0.59061649  0.09207039    -0.34840
N780        N  0.94657683  0.59035530  0.10609594    -0.29090
C781        C  0.96436787  0.58615672  0.09750443    -0.05190
C782        C  0.96136461  0.58347700  0.07709321     0.07020
C783        C  0.94104030  0.58659906  0.07423711     0.00820
H784        H  0.97850983  0.58621506  0.10542506     0.08470
H785        H  0.93306021  0.58648315  0.06010782     0.07550
N786        N  0.93108341  0.60489481  0.16458683    -0.36290
N787        N  0.91210841  0.60831188  0.16922023    -0.28470
C788        C  0.91096155  0.61373219  0.18861576    -0.03710
C789        C  0.93017115  0.61394124  0.19662492     0.04900
C790        C  0.94248574  0.60806483  0.18092957     0.02990
H791        H  0.89709798  0.61733324  0.19621272     0.08100
H792        H  0.95865856  0.60677273  0.18118017     0.06930
N793        N  0.73237122  0.65350891  0.08018322    -0.27450
N794        N  0.72821835  0.63440059  0.07722659    -0.35310
C795        C  0.74502719  0.62357625  0.07975347     0.00890
C796        C  0.76049673  0.63644344  0.08481794     0.06910
C797        C  0.75192667  0.65534052  0.08479134    -0.06190
H798        H  0.74572251  0.60742762  0.07886658     0.07580
H799        H  0.75924897  0.66939037  0.08814216     0.08780
Cu800      Cu  0.69949419  0.62369504  0.07225430     0.44170
Cu801      Cu  0.71092718  0.67600772  0.07928209     0.41990
Cu802      Cu  0.65954682  0.66052156  0.07086947     0.43880
N803        N  0.66929364  0.61648367  0.07135088    -0.34840
N804        N  0.65474501  0.62989548  0.07080104    -0.29090
C805        C  0.63699711  0.62042413  0.07197676    -0.05190
C806        C  0.64049340  0.60003139  0.07327487     0.07020
C807        C  0.66118823  0.59812600  0.07288029     0.00820
H808        H  0.62261142  0.62790151  0.07230204     0.08470
H809        H  0.66981957  0.58452981  0.07453720     0.07550
N810        N  0.66794885  0.68988929  0.07615739    -0.36290
N811        N  0.68666779  0.69547151  0.07949209    -0.28470
C812        C  0.68687925  0.71497927  0.08435499    -0.03710
C813        C  0.66733171  0.72206130  0.08428113     0.04900
C814        C  0.65575951  0.70570734  0.07877849     0.02990
H815        H  0.70023090  0.72316761  0.08856450     0.08100
H816        H  0.63963293  0.70510845  0.07719257     0.06930
N817        N  0.95940548  0.65336209  0.30493220    -0.27450
N818        N  0.96170281  0.63426041  0.30955092    -0.35310
C819        C  0.95951029  0.62318344  0.29284277     0.00890
C820        C  0.95580225  0.63592303  0.27687301     0.06910
C821        C  0.95566740  0.65492457  0.28516969    -0.06190
H822        H  0.95967291  0.60699860  0.29251259     0.07580
H823        H  0.95247455  0.66883200  0.27749936     0.08780
Cu824      Cu  0.96546306  0.62397481  0.33867074     0.44170
Cu825      Cu  0.95958849  0.67632514  0.32594899     0.41990
Cu826      Cu  0.96172801  0.66136262  0.37797631     0.43880
N827        N  0.96526491  0.61726412  0.36904943    -0.34840
N828        N  0.96331142  0.63085903  0.38332644    -0.29090
C829        C  0.96202992  0.62157175  0.40117629    -0.05190
C830        C  0.96353475  0.60120581  0.39798381     0.07020
C831        C  0.96551336  0.59897191  0.37746673     0.00820
H832        H  0.95998960  0.62907907  0.41540373     0.08470
H833        H  0.96629723  0.58507818  0.36918756     0.07550
N834        N  0.95898934  0.69085423  0.36878468    -0.36290
N835        N  0.95810534  0.69633151  0.34976090    -0.28470
C836        C  0.95470004  0.71614084  0.34884043    -0.03710
C837        C  0.95344806  0.72356367  0.36822683     0.04900
C838        C  0.95623889  0.70702744  0.38046485     0.02990
H839        H  0.95266213  0.72441313  0.33504162     0.08100
H840        H  0.95518946  0.70651408  0.39664352     0.06930
N841        N  0.68901335  0.92095387  0.30406297    -0.27450
N842        N  0.67003563  0.92375983  0.30912816    -0.35310
C843        C  0.65833491  0.92049443  0.29303041     0.00890
C844        C  0.67046797  0.91504898  0.27714743     0.06910
C845        C  0.68985338  0.91570718  0.28459369    -0.06190
H846        H  0.64211599  0.92104894  0.29315075     0.07580
H847        H  0.70348807  0.91196132  0.27663558     0.08780
Cu848      Cu  0.66045599  0.92927985  0.33815679     0.44170
Cu849      Cu  0.71272991  0.92244606  0.32429715     0.41990
Cu850      Cu  0.69884732  0.93120344  0.37611076     0.43880
N851        N  0.65441384  0.93124690  0.36856616    -0.34840
N852        N  0.66852092  0.93224776  0.38242850    -0.29090
C853        C  0.65990486  0.93208733  0.40064272    -0.05190
C854        C  0.63930506  0.93061065  0.39819338     0.07020
C855        C  0.63641258  0.93032594  0.37759841     0.00820
H856        H  0.66817548  0.93273550  0.41457062     0.08470
H857        H  0.62231047  0.92877818  0.36972469     0.07550
N858        N  0.72781973  0.92518020  0.36688803    -0.36290
N859        N  0.73302889  0.92208800  0.34799665    -0.28470
C860        C  0.75258038  0.91709649  0.34736185    -0.03710
C861        C  0.75983491  0.91680988  0.36678673     0.04900
C862        C  0.74380840  0.92209424  0.37877165     0.02990
H863        H  0.76066174  0.91307854  0.33388178     0.08100
H864        H  0.74359166  0.92292357  0.39497508     0.06930
N865        N  0.91162400  0.42891688  0.17043303    -0.27450
N866        N  0.93051453  0.43241637  0.16542903    -0.35310
C867        C  0.94226273  0.42969137  0.18159053     0.00890
C868        C  0.93019186  0.42434859  0.19751639     0.06910
C869        C  0.91088825  0.42387991  0.18997124    -0.06190
H870        H  0.95845611  0.43075295  0.18154205     0.07580
H871        H  0.89743079  0.41944536  0.19788013     0.08780
Cu872      Cu  0.94005925  0.43856741  0.13654176     0.44170
Cu873      Cu  0.88794758  0.42920223  0.15007665     0.41990
Cu874      Cu  0.90240318  0.43533285  0.09809852     0.43880
N875        N  0.94637009  0.44099498  0.10625490    -0.34840
N876        N  0.93251902  0.43960093  0.09216524    -0.29090
C877        C  0.94141260  0.44021238  0.07410251    -0.05190
C878        C  0.96189389  0.44216072  0.07691799     0.07020
C879        C  0.96448554  0.44257661  0.09753431     0.00820
H880        H  0.93354996  0.43892617  0.05996828     0.08470
H881        H  0.97852419  0.44301983  0.10565059     0.07550
N882        N  0.87332097  0.42980189  0.10727596    -0.36290
N883        N  0.86782150  0.42794590  0.12624438    -0.28470
C884        C  0.84805462  0.42385509  0.12692139    -0.03710
C885        C  0.84088693  0.42310369  0.10744494     0.04900
C886        C  0.85732719  0.42675653  0.09539932     0.02990
H887        H  0.83968877  0.42088472  0.14050606     0.08100
H888        H  0.85772542  0.42680779  0.07917714     0.06930
N889        N  0.87010899  0.15197613  0.38968609    -0.27450
N890        N  0.87554875  0.13294593  0.38921994    -0.35310
C891        C  0.85922877  0.12146809  0.38654447     0.00890
C892        C  0.84273403  0.13384967  0.38506323     0.06910
C893        C  0.85008063  0.15307394  0.38734746    -0.06190
H894        H  0.85947135  0.10536344  0.38491238     0.07580
H895        H  0.84164352  0.16686278  0.38634823     0.08780
Cu896      Cu  0.90488271  0.12310239  0.38991998     0.44170
Cu897      Cu  0.89039877  0.17561706  0.39103477     0.41990
Cu898      Cu  0.94281557  0.16105878  0.39146900     0.43880
N899        N  0.93519158  0.11687845  0.38906984    -0.34840
N900        N  0.94915283  0.13087063  0.39009159    -0.29090
C901        C  0.96730472  0.12223031  0.38903416    -0.05190
C902        C  0.96457733  0.10181267  0.38724228     0.07020
C903        C  0.94405823  0.09892308  0.38716665     0.00820
H904        H  0.98137180  0.13029571  0.38903942     0.08470
H905        H  0.93616654  0.08482778  0.38594011     0.07550
N906        N  0.93318019  0.19032537  0.38932805    -0.36290
N907        N  0.91411455  0.19580915  0.38929871    -0.28470
C908        C  0.91310477  0.21568778  0.38617640    -0.03710
C909        C  0.93243429  0.22287308  0.38398807     0.04900
C910        C  0.94477821  0.20645455  0.38610559     0.02990
H911        H  0.89932891  0.22410039  0.38464564     0.08100
H912        H  0.96093606  0.20611631  0.38463039     0.06930
N913        N  0.64898210  0.19593551  0.12346474    -0.27450
N914        N  0.64889862  0.19021352  0.10448322    -0.35310
C915        C  0.65147392  0.20631380  0.09266432     0.00890
C916        C  0.65307575  0.22310126  0.10471583     0.06910
C917        C  0.65157904  0.21588685  0.12416655    -0.06190
H918        H  0.65346254  0.20550767  0.07660472     0.07580
H919        H  0.65302582  0.22444139  0.13786335     0.08780
Cu920      Cu  0.64775106  0.16068559  0.09516573     0.44170
Cu921      Cu  0.64785183  0.17621336  0.14764853     0.41990
Cu922      Cu  0.64944012  0.12376187  0.13403693     0.43880
N923        N  0.64974928  0.13028989  0.08958087    -0.34840
N924        N  0.65091731  0.11674524  0.10397802    -0.29090
C925        C  0.65301364  0.09852226  0.09573111    -0.05190
C926        C  0.65305192  0.10078499  0.07517630     0.07020
C927        C  0.65083236  0.12103666  0.07171673     0.00820
H928        H  0.65409523  0.08467304  0.10406715     0.08470
H929        H  0.65015412  0.12848779  0.05732518     0.07550
N930        N  0.64932746  0.13390486  0.16322395    -0.36290
N931        N  0.64882874  0.15296842  0.16844912    -0.28470
C932        C  0.65045984  0.15422294  0.18854602    -0.03710
C933        C  0.65205698  0.13498861  0.19626958     0.04900
C934        C  0.65127285  0.12256380  0.17971162     0.02990
H935        H  0.65145080  0.16813765  0.19676167     0.08100
H936        H  0.65259269  0.10643181  0.17955186     0.06930
N937        N  0.73555760  0.37699436  0.07798772    -0.27450
N938        N  0.72961448  0.39579025  0.07647229    -0.35310
C939        C  0.74543492  0.40793121  0.07927443     0.00890
C940        C  0.76225391  0.39625589  0.08263410     0.06910
C941        C  0.75538797  0.37668217  0.08172855    -0.06190
H942        H  0.74462148  0.42409755  0.07938097     0.07580
H943        H  0.76391670  0.36321936  0.08459816     0.08780
Cu944      Cu  0.70001151  0.40419746  0.07269719     0.44170
Cu945      Cu  0.71595200  0.35285131  0.07691324     0.41990
Cu946      Cu  0.66318748  0.36455200  0.06942655     0.43880
N947        N  0.66940176  0.40911031  0.07200867    -0.34840
N948        N  0.65589949  0.39469391  0.07050156    -0.29090
C949        C  0.63746399  0.40276057  0.07183904    -0.05190
C950        C  0.63952858  0.42315664  0.07467881     0.07020
C951        C  0.65995628  0.42670060  0.07444204     0.00820
H952        H  0.62361889  0.39431300  0.07159204     0.08470
H953        H  0.66742181  0.44094718  0.07637914     0.07550
N954        N  0.67400173  0.33585479  0.07421829    -0.36290
N955        N  0.69312630  0.33167982  0.07740157    -0.28470
C956        C  0.69483180  0.31222865  0.08227682    -0.03710
C957        C  0.67586422  0.30374493  0.08225219     0.04900
C958        C  0.66306678  0.31913706  0.07685849     0.02990
H959        H  0.70883201  0.30494750  0.08600061     0.08100
H960        H  0.64687339  0.31849764  0.07599159     0.06930
N961        N  0.73292283  0.10765587  0.34926721    -0.27450
N962        N  0.72783309  0.10666593  0.36838669    -0.35310
C963        C  0.74431262  0.10906196  0.37974896     0.00890
C964        C  0.76064167  0.11200539  0.36718990     0.06910
C965        C  0.75277764  0.11081700  0.34795899    -0.06190
H966        H  0.74415752  0.10901986  0.39595322     0.07580
H967        H  0.76072426  0.11304011  0.33398851     0.08780
Cu968      Cu  0.69850293  0.10488041  0.37828868     0.44170
Cu969      Cu  0.71253143  0.10662747  0.32578867     0.41990
Cu970      Cu  0.66025860  0.10600765  0.33974253     0.43880
N971        N  0.66815103  0.10725714  0.38418639    -0.34840
N972        N  0.65418954  0.10735673  0.37010545    -0.29090
C973        C  0.63614966  0.10983725  0.37872918    -0.05190
C974        C  0.63896714  0.11176665  0.39915323     0.07020
C975        C  0.65938775  0.10985872  0.40215439     0.00820
H976        H  0.62208401  0.11067922  0.37068029     0.08470
H977        H  0.66729882  0.11047907  0.41630860     0.07550
N978        N  0.67008112  0.10773054  0.31039391    -0.36290
N979        N  0.68922025  0.10774978  0.30521613    -0.28470
C980        C  0.69059134  0.11012446  0.28523508    -0.03710
C981        C  0.67137959  0.11161925  0.27750364     0.04900
C982        C  0.65876692  0.11023801  0.29389865     0.02990
H983        H  0.70453722  0.11150268  0.27704699     0.08100
H984        H  0.64258611  0.11148003  0.29390729     0.06930
N985        N  0.95781922  0.37702397  0.30318973    -0.27450
N986        N  0.96224091  0.39558413  0.30836056    -0.35310
C987        C  0.96051451  0.40744439  0.29216486     0.00890
C988        C  0.95457854  0.39588532  0.27589262     0.06910
C989        C  0.95296576  0.37663300  0.28362835    -0.06190
H990        H  0.96287768  0.42344774  0.29245449     0.07580
H991        H  0.94770592  0.36335630  0.27604483     0.08780
Cu992      Cu  0.96779626  0.40450298  0.33764776     0.44170
Cu993      Cu  0.95750196  0.35305097  0.32301643     0.41990
Cu994      Cu  0.96916410  0.36467724  0.37432860     0.43880
N995        N  0.96840154  0.40933415  0.36838583    -0.34840
N996        N  0.96891547  0.39469597  0.38169949    -0.29090
C997        C  0.96740724  0.40246662  0.40021286    -0.05190
C998        C  0.96608132  0.42306511  0.39855146     0.07020
C999        C  0.96659490  0.42686343  0.37812607     0.00820
H1000       H  0.96619901  0.39357426  0.41369032     0.08470
H1001       H  0.96529961  0.44128530  0.37086415     0.07550
N1002       N  0.96353827  0.33597487  0.36433946    -0.36290
N1003       N  0.95860485  0.33172354  0.34564516    -0.28470
C1004       C  0.95368859  0.31224609  0.34450146    -0.03710
C1005       C  0.95545303  0.30380746  0.36345232     0.04900
C1006       C  0.96202026  0.31934886  0.37557148     0.02990
H1007       H  0.94837801  0.30498658  0.33101061     0.08100
H1008       H  0.96509716  0.31888821  0.39147742     0.06930
N1009       N  0.23435639  0.42852335  0.12662605    -0.27450
N1010       N  0.22926628  0.43138902  0.10767830    -0.35310
C1011       C  0.24527574  0.42790613  0.09593586     0.00890
C1012       C  0.26131238  0.42280814  0.10805767     0.06910
C1013       C  0.25384655  0.42335692  0.12744208    -0.06190
H1014       H  0.24511370  0.42857331  0.07972325     0.07580
H1015       H  0.26169919  0.41929636  0.14104479     0.08780
Cu1016     Cu  0.20043928  0.43802009  0.09830240     0.44170
Cu1017     Cu  0.21396302  0.42929145  0.15018550     0.41990
Cu1018     Cu  0.16172631  0.43498749  0.13599585     0.43880
N1019       N  0.17014775  0.44019647  0.09194939    -0.34840
N1020       N  0.15596089  0.43864191  0.10568274    -0.29090
C1021       C  0.13798628  0.43873925  0.09657055    -0.05190
C1022       C  0.14093789  0.44031326  0.07603292     0.07020
C1023       C  0.16159459  0.44146231  0.07374289     0.00820
H1024       H  0.12383670  0.43701352  0.10432346     0.08470
H1025       H  0.16995928  0.44284233  0.05992670     0.07550
N1026       N  0.17120252  0.42976217  0.16512210    -0.36290
N1027       N  0.19022616  0.42771712  0.17033331    -0.28470
C1028       C  0.19115621  0.42309615  0.18994694    -0.03710
C1029       C  0.17181064  0.42240159  0.19751051     0.04900
C1030       C  0.15955276  0.42651795  0.18126716     0.02990
H1031       H  0.20487476  0.41982133  0.19796895     0.08100
H1032       H  0.14332691  0.42626882  0.18098634     0.06930
N1033       N  0.45229599  0.19588100  0.12393389    -0.27450
N1034       N  0.45281164  0.19017165  0.10494453    -0.35310
C1035       C  0.44967347  0.20612730  0.09309174     0.00890
C1036       C  0.44699024  0.22266584  0.10518200     0.06910
C1037       C  0.44892869  0.21573235  0.12463453    -0.06190
H1038       H  0.44860664  0.20557924  0.07690949     0.07580
H1039       H  0.44704186  0.22428732  0.13827528     0.08780
Cu1040     Cu  0.45534825  0.16080391  0.09567403     0.44170
Cu1041     Cu  0.45374209  0.17601230  0.14794052     0.41990
Cu1042     Cu  0.45351657  0.12336049  0.13404851     0.43880
N1043       N  0.45404619  0.13052539  0.08969440    -0.34840
N1044       N  0.45286774  0.11672643  0.10383614    -0.29090
C1045       C  0.45099807  0.09865096  0.09521168    -0.05190
C1046       C  0.45126498  0.10125966  0.07466583     0.07020
C1047       C  0.45313953  0.12162978  0.07165752     0.00820
H1048       H  0.44965480  0.08466893  0.10328626     0.08470
H1049       H  0.45331369  0.12947910  0.05746887     0.07550
N1050       N  0.45284705  0.13351369  0.16326543    -0.36290
N1051       N  0.45286536  0.15258530  0.16850432    -0.28470
C1052       C  0.45088099  0.15380958  0.18855785    -0.03710
C1053       C  0.44958899  0.13456071  0.19628015     0.04900
C1054       C  0.45088400  0.12213935  0.17974139     0.02990
H1055       H  0.44947023  0.16771290  0.19672789     0.08100
H1056       H  0.44994572  0.10598031  0.17958200     0.06930
N1057       N  0.18745205  0.19560995  0.38944041    -0.27450
N1058       N  0.16839467  0.19018659  0.38943710    -0.35310
C1059       C  0.15689349  0.20652028  0.38697972     0.00890
C1060       C  0.16922931  0.22315585  0.38522337     0.06910
C1061       C  0.18855604  0.21557495  0.38709930    -0.06190
H1062       H  0.14072651  0.20614521  0.38565749     0.07580
H1063       H  0.20251736  0.22377023  0.38658830     0.08780
Cu1064     Cu  0.15881088  0.16070440  0.39088682     0.44170
Cu1065     Cu  0.21118476  0.17544741  0.39064873     0.41990
Cu1066     Cu  0.19768939  0.12305089  0.39269063     0.43880
N1067       N  0.15325225  0.13022962  0.38927024    -0.34840
N1068       N  0.16750168  0.11651120  0.38985472    -0.29090
C1069       C  0.15916827  0.09835618  0.38754110    -0.05190
C1070       C  0.13868112  0.10072407  0.38516323     0.07020
C1071       C  0.13544069  0.12115368  0.38663446     0.00820
H1072       H  0.16746080  0.08444421  0.38734378     0.08470
H1073       H  0.12125809  0.12894985  0.38630367     0.07550
N1074       N  0.22698401  0.13316634  0.39156498    -0.36290
N1075       N  0.23198283  0.15225840  0.39036450    -0.28470
C1076       C  0.25194647  0.15365041  0.38773500    -0.03710
C1077       C  0.25996508  0.13448433  0.38752606     0.04900
C1078       C  0.24359918  0.12192783  0.38987786     0.02990
H1079       H  0.25966960  0.16756726  0.38489780     0.08100
H1080       H  0.24366386  0.10574043  0.38966929     0.06930
N1081       N  0.41196384  0.10726779  0.30518087    -0.27450
N1082       N  0.43104618  0.10840708  0.31043827    -0.35310
C1083       C  0.44234088  0.11107468  0.29397551     0.00890
C1084       C  0.42982335  0.11140486  0.27748118     0.06910
C1085       C  0.41063440  0.10909010  0.28512496    -0.06190
H1086       H  0.45843291  0.11318413  0.29407220     0.07580
H1087       H  0.39670306  0.10958095  0.27681701     0.08780
Cu1088     Cu  0.44096574  0.10795451  0.33970914     0.44170
Cu1089     Cu  0.38865786  0.10540286  0.32581201     0.41990
Cu1090     Cu  0.40341963  0.10707636  0.37840573     0.43880
N1091       N  0.44761307  0.10886122  0.36987785    -0.34840
N1092       N  0.43388464  0.10858997  0.38415799    -0.29090
C1093       C  0.44303537  0.11016714  0.40204697    -0.05190
C1094       C  0.46351092  0.11129482  0.39882152     0.07020
C1095       C  0.46585315  0.11059745  0.37823103     0.00820
H1096       H  0.43535312  0.11058558  0.41633570     0.08470
H1097       H  0.47962288  0.11204913  0.36980118     0.07550
N1098       N  0.37394431  0.10720114  0.36864946    -0.36290
N1099       N  0.36850672  0.10643800  0.34958921    -0.28470
C1100       C  0.34843101  0.10814230  0.34846460    -0.03710
C1101       C  0.34087792  0.10993930  0.36773653     0.04900
C1102       C  0.35751591  0.10946908  0.38011172     0.02990
H1103       H  0.34004462  0.10902438  0.33460030     0.08100
H1104       H  0.35773418  0.11134491  0.39622743     0.06930
N1105       N  0.14180688  0.37413328  0.30261026    -0.27450
N1106       N  0.14168223  0.39311605  0.30808017    -0.35310
C1107       C  0.14522723  0.40464657  0.29196870     0.00890
C1108       C  0.14796386  0.39237718  0.27548640     0.06910
C1109       C  0.14544198  0.37307081  0.28277728    -0.06190
H1110       H  0.14654034  0.42077839  0.29238084     0.07580
H1111       H  0.14621276  0.35922648  0.27447318     0.08780
Cu1112     Cu  0.13846140  0.40238120  0.33742739     0.44170
Cu1113     Cu  0.13880356  0.35083319  0.32304754     0.41990
Cu1114     Cu  0.13255803  0.36469525  0.37589381     0.43880
N1115       N  0.13674471  0.40879392  0.36766024    -0.34840
N1116       N  0.13434655  0.39519940  0.38184972    -0.29090
C1117       C  0.13470542  0.40439574  0.39980679    -0.05190
C1118       C  0.13730376  0.42476597  0.39671967     0.07020
C1119       C  0.13876171  0.42690400  0.37612662     0.00820
H1120       H  0.13346366  0.39679196  0.41408190     0.08470
H1121       H  0.14204204  0.44036442  0.36778875     0.07550
N1122       N  0.13547473  0.33541073  0.36572691    -0.36290
N1123       N  0.13816648  0.33052918  0.34667598    -0.28470
C1124       C  0.14210952  0.31083682  0.34548782    -0.03710
C1125       C  0.14160343  0.30286036  0.36461486     0.04900
C1126       C  0.13745160  0.31886653  0.37709697     0.02990
H1127       H  0.14597812  0.30305770  0.33179646     0.08100
H1128       H  0.13718606  0.31873040  0.39332073     0.06930
N1129       N  0.36613307  0.37576931  0.07830354    -0.27450
N1130       N  0.37230732  0.39456068  0.07799658    -0.35310
C1131       C  0.35656545  0.40673558  0.08094796     0.00890
C1132       C  0.33955062  0.39511535  0.08298978     0.06910
C1133       C  0.34616458  0.37551445  0.08138156    -0.06190
H1134       H  0.35751952  0.42286001  0.08204165     0.07580
H1135       H  0.33726111  0.36208723  0.08312470     0.08780
Cu1136     Cu  0.40194538  0.40296346  0.07503794     0.44170
Cu1137     Cu  0.38576547  0.35164989  0.07628557     0.41990
Cu1138     Cu  0.43872760  0.36431420  0.06836370     0.43880
N1139       N  0.43235477  0.40844075  0.07328600    -0.34840
N1140       N  0.44596093  0.39438617  0.07043313    -0.29090
C1141       C  0.46430631  0.40276281  0.07098301    -0.05190
C1142       C  0.46212725  0.42311055  0.07460253     0.07020
C1143       C  0.44159973  0.42609403  0.07580157     0.00820
H1144       H  0.47811230  0.39451590  0.06903398     0.08470
H1145       H  0.43388772  0.43998587  0.07891928     0.07550
N1146       N  0.42811130  0.33552597  0.07289385    -0.36290
N1147       N  0.40907529  0.33093219  0.07606369    -0.28470
C1148       C  0.40780379  0.31137700  0.08066240    -0.03710
C1149       C  0.42695416  0.30327257  0.08060664     0.04900
C1150       C  0.43939868  0.31904904  0.07538012     0.02990
H1151       H  0.39402778  0.30384906  0.08475242     0.08100
H1152       H  0.45554576  0.31883169  0.07392753     0.06930
O1153       O  0.52955482  0.53390522  0.06544708    -0.73110
O1154       O  0.57093792  0.49075993  0.06396517    -0.74090
O1155       O  0.52874477  0.49193285  0.06462256    -0.62710
O1156       O  0.57219755  0.53298850  0.06475148    -0.71120
O1157       O  0.57231780  0.53332890  0.09806735    -0.70670
O1158       O  0.52973708  0.49054126  0.09791264    -0.61920
O1159       O  0.57236392  0.49066357  0.09720919    -0.74430
O1160       O  0.52971525  0.53332764  0.09876391    -0.73210
Cu1161     Cu  0.55037069  0.51246646  0.06358388     1.04560
Cu1162     Cu  0.55105983  0.51195872  0.09921376     1.04330
C1163       C  0.52290033  0.54023280  0.08223472     0.93090
C1164       C  0.57808996  0.48373638  0.08026938     0.92230
C1165       C  0.52248960  0.48467306  0.08116536     0.84380
C1166       C  0.57906108  0.53970807  0.08130428     0.90650
O1167       O  0.16073248  0.48983956  0.50888863    -0.73110
O1168       O  0.16258127  0.53262403  0.46620046    -0.74090
O1169       O  0.16244178  0.53245284  0.50905834    -0.62710
O1170       O  0.16101829  0.48981071  0.46629196    -0.71120
O1171       O  0.12775587  0.49165537  0.46585427    -0.70670
O1172       O  0.12920806  0.53352041  0.50855463    -0.61920
O1173       O  0.12925823  0.53366666  0.46619308    -0.74430
O1174       O  0.12759311  0.49123819  0.50834728    -0.73210
Cu1175     Cu  0.16291399  0.51114802  0.48760961     1.04560
Cu1176     Cu  0.12735480  0.51255271  0.48725878     1.04330
C1177       C  0.14375575  0.48374721  0.51539948     0.93090
C1178       C  0.14609454  0.53977207  0.45949985     0.92230
C1179       C  0.14593646  0.53979466  0.51546301     0.84380
C1180       C  0.14408553  0.48412952  0.45931925     0.90650
O1181       O  0.52958914  0.10329699  0.51040220    -0.73110
O1182       O  0.57139910  0.10158917  0.46782188    -0.74090
O1183       O  0.57201979  0.10241158  0.51004200    -0.62710
O1184       O  0.52936922  0.10244905  0.46837461    -0.71120
O1185       O  0.52993165  0.13564844  0.46737257    -0.70670
O1186       O  0.57271104  0.13566072  0.50994905    -0.61920
O1187       O  0.57261110  0.13476707  0.46726764    -0.74430
O1188       O  0.53007499  0.13656544  0.51007832    -0.73210
Cu1189     Cu  0.55059414  0.10133718  0.48923914     1.04560
Cu1190     Cu  0.55137123  0.13689562  0.48866908     1.04330
C1191       C  0.52301998  0.12006956  0.51671845     0.93090
C1192       C  0.57845196  0.11780519  0.46058514     0.92230
C1193       C  0.57910399  0.11889572  0.51658636     0.84380
C1194       C  0.52286132  0.11893462  0.46126771     0.90650
O1195       O  0.97387114  0.53300439  0.46611913    -0.73110
O1196       O  0.97287790  0.49129924  0.50895453    -0.74090
O1197       O  0.97383515  0.49067832  0.46676473    -0.62710
O1198       O  0.97296896  0.53334840  0.50858369    -0.71120
O1199       O  0.93967753  0.53304039  0.50848039    -0.70670
O1200       O  0.94059565  0.49117527  0.46488598    -0.61920
O1201       O  0.93958932  0.49036584  0.50762990    -0.74430
O1202       O  0.94064727  0.53376666  0.46567317    -0.73210
Cu1203     Cu  0.97448924  0.51210440  0.48758916     1.04560
Cu1204     Cu  0.93890193  0.51210801  0.48662255     1.04330
C1205       C  0.95751855  0.54015381  0.45916444     0.93090
C1206       C  0.95618033  0.48414844  0.51495834     0.92230
C1207       C  0.95750643  0.48416396  0.45919337     0.84380
C1208       C  0.95627227  0.53955169  0.51557766     0.90650
O1209       O  0.52879343  0.90939772  0.50821684    -0.73110
O1210       O  0.57167229  0.91011671  0.46582461    -0.74090
O1211       O  0.57133909  0.91014972  0.50832245    -0.62710
O1212       O  0.52906274  0.90938204  0.46533282    -0.71120
O1213       O  0.52811659  0.94260227  0.46581387    -0.70670
O1214       O  0.57043818  0.94338688  0.50820397    -0.61920
O1215       O  0.57044335  0.94334195  0.46552171    -0.74430
O1216       O  0.52810925  0.94264128  0.50790143    -0.73210
Cu1217     Cu  0.55023208  0.90855294  0.48691773     1.04560
Cu1218     Cu  0.54930622  0.94412396  0.48685466     1.04330
C1219       C  0.52170671  0.92596311  0.51465256     0.93090
C1220       C  0.57762952  0.92691915  0.45890275     0.92230
C1221       C  0.57734642  0.92696700  0.51515687     0.84380
C1222       C  0.52191606  0.92592405  0.45887711     0.90650
O1223       O  0.57161383  0.49068577  0.87558905    -0.73110
O1224       O  0.52897104  0.53340892  0.87646213    -0.74090
O1225       O  0.57170889  0.53315554  0.87615131    -0.62710
O1226       O  0.52865609  0.49083566  0.87592317    -0.71120
O1227       O  0.52944430  0.49021457  0.90923980    -0.70670
O1228       O  0.57133556  0.53273395  0.90946256    -0.61920
O1229       O  0.52896142  0.53236311  0.90966630    -0.74430
O1230       O  0.57160815  0.49041028  0.90891949    -0.73210
Cu1231     Cu  0.55022791  0.51202528  0.87480394     1.04560
Cu1232     Cu  0.55036075  0.51142928  0.91042765     1.04330
C1233       C  0.57826414  0.48387212  0.89222213     0.93090
C1234       C  0.52215367  0.53958064  0.89327936     0.92230
C1235       C  0.57828835  0.53953715  0.89298038     0.84380
C1236       C  0.52228628  0.48396097  0.89265782     0.90650
O1237       O  0.07306611  0.03199432  0.39803277    -0.73110
O1238       O  0.03023308  0.99064219  0.40130282    -0.74090
O1239       O  0.07220889  0.99026196  0.40044430    -0.62710
O1240       O  0.03085838  0.03284301  0.39895957    -0.71120
O1241       O  0.02946836  0.03123500  0.36577515    -0.70670
O1242       O  0.07196889  0.98822781  0.36722176    -0.61920
O1243       O  0.02915213  0.98861529  0.36809451    -0.74430
O1244       O  0.07219339  0.03094036  0.36475589    -0.73210
Cu1245     Cu  0.05156559  0.01152084  0.40075419     1.04560
Cu1246     Cu  0.05064608  0.00969067  0.36520706     1.04330
C1247       C  0.07955602  0.03789898  0.38103256     0.93090
C1248       C  0.02318915  0.98278610  0.38536360     0.92230
C1249       C  0.07882643  0.98259968  0.38424181     0.84380
C1250       C  0.02359872  0.03892056  0.38232964     0.90650
O1251       O  0.02835220  0.98818926  0.60540236    -0.73110
O1252       O  0.07085445  0.03068853  0.61139754    -0.74090
O1253       O  0.02806143  0.03064793  0.60968458    -0.62710
O1254       O  0.07099380  0.98821714  0.60706630    -0.71120
O1255       O  0.07304615  0.99298482  0.57418339    -0.70670
O1256       O  0.02857930  0.03250983  0.57644569    -0.61920
O1257       O  0.07065662  0.03483817  0.57831654    -0.74430
O1258       O  0.03096727  0.99076805  0.57234460    -0.73210
Cu1259     Cu  0.04952821  0.00932431  0.60963470     1.04560
Cu1260     Cu  0.05087224  0.01289607  0.57424026     1.04330
C1261       C  0.02322990  0.98256101  0.58779608     0.93090
C1262       C  0.07713990  0.03962640  0.59565469     0.92230
C1263       C  0.02128653  0.03791190  0.59327712     0.84380
C1264       C  0.07884767  0.98405443  0.59007268     0.90650
O1265       O  0.42951768  0.98914674  0.96641201    -0.73110
O1266       O  0.42920991  0.03159594  0.00929188    -0.74090
O1267       O  0.42962194  0.03193646  0.96648166    -0.62710
O1268       O  0.42935372  0.98889162  0.00924183    -0.71120
O1269       O  0.46264549  0.98889362  0.00828245    -0.70670
O1270       O  0.46277979  0.03195215  0.96746287    -0.61920
O1271       O  0.46246717  0.03109173  0.00941486    -0.74430
O1272       O  0.46283019  0.99005819  0.96631515    -0.73210
Cu1273     Cu  0.42815920  0.01038214  0.98786318     1.04560
Cu1274     Cu  0.46373884  0.01048885  0.98791372     1.04330
C1275       C  0.44636589  0.98301699  0.95962289     0.93090
C1276       C  0.44593630  0.03812015  0.01601385     0.92230
C1277       C  0.44646665  0.03887831  0.96036606     0.84380
C1278       C  0.44622189  0.98197392  0.01521333     0.90650
O1279       O  0.02955013  0.42451180  0.96588327    -0.73110
O1280       O  0.07225540  0.42332514  0.00828647    -0.74090
O1281       O  0.02946382  0.42371352  0.00843301    -0.62710
O1282       O  0.07188957  0.42426712  0.96565549    -0.71120
O1283       O  0.07258961  0.45748941  0.96709704    -0.70670
O1284       O  0.02975110  0.45694343  0.00906979    -0.61920
O1285       O  0.07201030  0.45656175  0.00953945    -0.74430
O1286       O  0.02982984  0.45774607  0.96678591    -0.73210
Cu1287     Cu  0.05080021  0.42276134  0.98706595     1.04560
Cu1288     Cu  0.05107735  0.45833236  0.98811686     1.04330
C1289       C  0.02290704  0.44135622  0.95977018     0.93090
C1290       C  0.07869726  0.43974934  0.01568082     0.92230
C1291       C  0.02273126  0.44028446  0.01525499     0.84380
C1292       C  0.07889351  0.44103454  0.95969960     0.90650
O1293       O  0.63688215  0.99100623  0.96577828    -0.73110
O1294       O  0.63925985  0.03188747  0.00892812    -0.74090
O1295       O  0.63867277  0.03275861  0.96686657    -0.62710
O1296       O  0.63738290  0.98974284  0.00778696    -0.71120
O1297       O  0.67066800  0.98852188  0.00830562    -0.70670
O1298       O  0.67183157  0.03151966  0.96580076    -0.61920
O1299       O  0.67243164  0.03111326  0.00853357    -0.74430
O1300       O  0.67006806  0.98884637  0.96538773    -0.73210
Cu1301     Cu  0.63699021  0.01138441  0.98740524     1.04560
Cu1302     Cu  0.67250305  0.00993151  0.98701442     1.04330
C1303       C  0.65293347  0.98348091  0.95861039     0.93090
C1304       C  0.65607339  0.03831108  0.01545707     0.92230
C1305       C  0.65526412  0.03892145  0.95960027     0.84380
C1306       C  0.65363568  0.98228927  0.01454024     0.90650
O1307       O  0.02806894  0.56035046  0.96564473    -0.73110
O1308       O  0.07078752  0.55977703  0.00858581    -0.74090
O1309       O  0.02807767  0.56032097  0.00852992    -0.62710
O1310       O  0.07107376  0.55982697  0.96580965    -0.71120
O1311       O  0.07169505  0.59304243  0.96646733    -0.70670
O1312       O  0.02784587  0.59350655  0.00734318    -0.61920
O1313       O  0.07021987  0.59299799  0.00905930    -0.74430
O1314       O  0.02951132  0.59351657  0.96499613    -0.73210
Cu1315     Cu  0.04949419  0.55885160  0.98712845     1.04560
Cu1316     Cu  0.04985616  0.59436963  0.98698288     1.04330
C1317       C  0.02220556  0.57711132  0.95844774     0.93090
C1318       C  0.07687350  0.57640277  0.01584744     0.92230
C1319       C  0.02106432  0.57711216  0.01447724     0.84380
C1320       C  0.07819361  0.57646875  0.95952856     0.90650
C1321       C  0.47327281  0.45847028  0.07162512    -0.26480
C1322       C  0.47789115  0.43865307  0.07700167    -0.14550
C1323       C  0.49716259  0.43429396  0.08480556     0.36080
C1324       C  0.51141641  0.44973090  0.08649872    -0.25930
C1325       C  0.50677747  0.46930295  0.08064971    -0.15170
C1326       C  0.48753493  0.47380875  0.07328785     0.37160
N1327       N  0.48243814  0.49402122  0.06791505    -0.89420
H1328       H  0.45858073  0.46200363  0.06568495     0.18280
H1329       H  0.52630425  0.44646171  0.09215197     0.18270
N1330       N  0.50215901  0.41439755  0.09126572    -0.88450
H1331       H  0.46738060  0.49497865  0.06363634     0.35640
H1332       H  0.49087028  0.49789015  0.05528142     0.40740
H1333       H  0.49307359  0.41101094  0.10359085     0.40360
H1334       H  0.51699070  0.41374982  0.09632467     0.35250
C1335       C  0.15096334  0.43630422  0.42944816    -0.26480
C1336       C  0.13945330  0.44047780  0.41227180    -0.14550
C1337       C  0.12963513  0.45922347  0.41078803     0.36080
C1338       C  0.13144787  0.47310467  0.42633523    -0.25930
C1339       C  0.14313279  0.46901451  0.44329083    -0.15170
C1340       C  0.15297774  0.45044056  0.44496581     0.37160
N1341       N  0.16451451  0.44583709  0.46258978    -0.89420
H1342       H  0.15840789  0.42195457  0.43076075     0.18280
H1343       H  0.12371203  0.48732329  0.42511190     0.18270
N1344       N  0.11703071  0.46437588  0.39418066    -0.88450
H1345       H  0.17074684  0.43152553  0.46148039     0.35640
H1346       H  0.15464693  0.44548841  0.47477976     0.40740
H1347       H  0.10641150  0.45305197  0.39211369     0.40360
H1348       H  0.12581598  0.46579541  0.38132069     0.35250
C1349       C  0.51040209  0.10396738  0.43008801    -0.26480
C1350       C  0.50757268  0.11816431  0.44533156    -0.14550
C1351       C  0.49006533  0.13023045  0.44516860     0.36080
C1352       C  0.47626693  0.12798204  0.42944669    -0.25930
C1353       C  0.47921834  0.11380883  0.41420378    -0.15170
C1354       C  0.49651278  0.10162639  0.41464224     0.37160
N1355       N  0.49998188  0.08611744  0.40022981    -0.89420
H1356       H  0.52357232  0.09445091  0.43022802     0.18280
H1357       H  0.46288216  0.13718781  0.42934323     0.18270
N1358       N  0.48527599  0.14425877  0.46083216    -0.88450
H1359       H  0.50202892  0.09256652  0.38613036     0.35640
H1360       H  0.48745671  0.07670682  0.39985652     0.40740
H1361       H  0.49555898  0.14375209  0.47256603     0.40360
H1362       H  0.47158850  0.13986547  0.46710896     0.35250
C1363       C  0.12587570  0.06736781  0.39492209    -0.26480
C1364       C  0.12371354  0.08450157  0.38294103    -0.14550
C1365       C  0.10783552  0.08530602  0.36882572     0.36080
C1366       C  0.09408313  0.06949670  0.36771536    -0.25930
C1367       C  0.09566736  0.05297242  0.38055227    -0.15170
C1368       C  0.11203849  0.05158619  0.39386297     0.37160
N1369       N  0.11454242  0.03410594  0.40620425    -0.89420
H1370       H  0.13824301  0.06643330  0.40542549     0.18280
H1371       H  0.08169105  0.07045159  0.35723543     0.18270
N1372       N  0.10554516  0.10160862  0.35507301    -0.88450
H1373       H  0.12734560  0.03542939  0.41516146     0.35640
H1374       H  0.11699645  0.02193181  0.39666211     0.40740
H1375       H  0.11906778  0.10368560  0.34740750     0.40360
H1376       H  0.10207145  0.11455266  0.36307162     0.35250
C1377       C  0.28386561  0.11161385  0.37047194    -0.26480
C1378       C  0.28085838  0.12824500  0.38301206    -0.14550
C1379       C  0.29779228  0.13782860  0.39147371     0.36080
C1380       C  0.31706179  0.13108452  0.38668015    -0.25930
C1381       C  0.32005960  0.11492787  0.37357470    -0.15170
C1382       C  0.30315598  0.10462588  0.36586397     0.37160
N1383       N  0.30482935  0.08685315  0.35378917    -0.89420
H1384       H  0.27106103  0.10384746  0.36417322     0.18280
H1385       H  0.32986724  0.13889536  0.39293359     0.18270
N1386       N  0.29602719  0.15400589  0.40543745    -0.88450
H1387       H  0.29718545  0.07539079  0.36125718     0.35640
H1388       H  0.31962252  0.08193858  0.35274557     0.40740
H1389       H  0.28644571  0.14966790  0.41706702     0.40360
H1390       H  0.29005643  0.16642863  0.39810623     0.35250
C1391       C  0.14338224  0.25021513  0.38649893    -0.26480
C1392       C  0.16272346  0.24403265  0.38072791    -0.14550
C1393       C  0.17491852  0.25756198  0.36991694     0.36080
C1394       C  0.16757665  0.27659837  0.36499947    -0.25930
C1395       C  0.14824920  0.28263455  0.37060586    -0.15170
C1396       C  0.13592358  0.26922589  0.38150321     0.37160
N1397       N  0.11571430  0.27404932  0.38733602    -0.89420
H1398       H  0.13379372  0.24012859  0.39486051     0.18280
H1399       H  0.17709761  0.28676869  0.35662859     0.18270
N1400       N  0.19453688  0.25195842  0.36326205    -0.88450
H1401       H  0.10615719  0.26390554  0.38017425     0.35640
H1402       H  0.11143957  0.28821348  0.38237785     0.40740
H1403       H  0.20483813  0.26212942  0.36926132     0.40360
H1404       H  0.19498394  0.25322780  0.34763901     0.35250
C1405       C  0.43296678  0.07279863  0.05941821    -0.26480
C1406       C  0.44966427  0.08556569  0.05929601    -0.14550
C1407       C  0.46496065  0.08277610  0.04501957     0.36080
C1408       C  0.46332498  0.06707528  0.03120395    -0.25930
C1409       C  0.44657677  0.05430874  0.03110927    -0.15170
C1410       C  0.43114206  0.05724499  0.04533332     0.37160
N1411       N  0.41391501  0.04430721  0.04568381    -0.89420
H1412       H  0.42132509  0.07501644  0.07054472     0.18280
H1413       H  0.47515926  0.06493767  0.02027027     0.18270
N1414       N  0.48247191  0.09534952  0.04510464    -0.88450
H1415       H  0.40389306  0.04871780  0.05690657     0.35640
H1416       H  0.41888323  0.02999075  0.04956177     0.40740
H1417       H  0.47807422  0.10958695  0.04037602     0.40360
H1418       H  0.49293411  0.09034845  0.03455359     0.35250
C1419       C  0.41911165  0.26691544  0.08269645    -0.26480
C1420       C  0.43262237  0.28258664  0.08649701    -0.14550
C1421       C  0.45073624  0.27829795  0.09661892     0.36080
C1422       C  0.45494842  0.25862256  0.10262627    -0.25930
C1423       C  0.44146615  0.24302931  0.09874575    -0.15170
C1424       C  0.42316269  0.24725089  0.08879517     0.37160
N1425       N  0.40814986  0.23224130  0.08497539    -0.89420
H1426       H  0.40512331  0.26995776  0.07500617     0.18280
H1427       H  0.46889665  0.25549999  0.11037799     0.18270
N1428       N  0.46465519  0.29388459  0.10144415    -0.88450
H1429       H  0.39510620  0.23653528  0.09254477     0.35640
H1430       H  0.41209944  0.21836967  0.09091350     0.40740
H1431       H  0.47845824  0.29032918  0.09490586     0.40360
H1432       H  0.46656887  0.29410969  0.11700577     0.35250
C1433       C  0.43347049  0.11135203  0.22060863    -0.26480
C1434       C  0.44536746  0.12838677  0.21723108    -0.14550
C1435       C  0.45294612  0.13910945  0.23382098     0.36080
C1436       C  0.44786860  0.13294765  0.25332574    -0.25930
C1437       C  0.43554221  0.11623037  0.25663658    -0.15170
C1438       C  0.42859521  0.10503367  0.24002072     0.37160
N1439       N  0.41730741  0.08681573  0.24212746    -0.89420
H1440       H  0.42775014  0.10282988  0.20803113     0.18280
H1441       H  0.45334123  0.14142743  0.26605211     0.18270
N1442       N  0.46593085  0.15603186  0.23087178    -0.88450
H1443       H  0.40271320  0.08959602  0.23712078     0.35640
H1444       H  0.41643103  0.08204767  0.25698827     0.40740
H1445       H  0.47913113  0.15080438  0.22422512     0.40360
H1446       H  0.47004564  0.16230955  0.24463224     0.35250
C1447       C  0.11313143  0.43204365  0.02664614    -0.26480
C1448       C  0.09407200  0.43938946  0.03145671    -0.14550
C1449       C  0.09032429  0.44679806  0.05095733     0.36080
C1450       C  0.10592031  0.44704328  0.06500786    -0.25930
C1451       C  0.12517758  0.43991712  0.06024782    -0.15170
C1452       C  0.12873444  0.43209627  0.04082550     0.37160
N1453       N  0.14793568  0.42383930  0.03560775    -0.89420
H1454       H  0.11585512  0.42630417  0.01168527     0.18280
H1455       H  0.10286722  0.45293131  0.07982951     0.18270
N1456       N  0.07083679  0.45353579  0.05730122    -0.88450
H1457       H  0.14807669  0.41907084  0.02067355     0.35640
H1458       H  0.15010521  0.41107657  0.04441582     0.40740
H1459       H  0.05998923  0.45153949  0.04621488     0.40360
H1460       H  0.07180772  0.46889135  0.06011659     0.35250
C1461       C  0.17503692  0.39837298  0.22553134    -0.26480
C1462       C  0.16556485  0.41540352  0.21765524    -0.14550
C1463       C  0.15017777  0.42478083  0.22895834     0.36080
C1464       C  0.14424918  0.41631640  0.24729290    -0.25930
C1465       C  0.15357850  0.39913279  0.25503988    -0.15170
C1466       C  0.16930574  0.39019318  0.24396543     0.37160
N1467       N  0.18031929  0.37330905  0.25127078    -0.89420
H1468       H  0.18693296  0.39114812  0.21714812     0.18280
H1469       H  0.13248375  0.42357508  0.25583321     0.18270
N1470       N  0.14072253  0.44316316  0.22285009    -0.88450
H1471       H  0.17076342  0.36096999  0.25196921     0.35640
H1472       H  0.18577086  0.37657213  0.26560198     0.40740
H1473       H  0.14759081  0.44929700  0.21023549     0.40360
H1474       H  0.14305283  0.45364224  0.23426005     0.35250
C1475       C  0.28306372  0.40338594  0.08484994    -0.26480
C1476       C  0.28143419  0.41615614  0.10148119    -0.14550
C1477       C  0.29895558  0.42235838  0.11155259     0.36080
C1478       C  0.31770043  0.41534242  0.10498894    -0.25930
C1479       C  0.31932721  0.40224321  0.08860508    -0.15170
C1480       C  0.30173332  0.39634317  0.07825333     0.37160
N1481       N  0.30214374  0.38400152  0.06059974    -0.89420
H1482       H  0.26966355  0.39872644  0.07691942     0.18280
H1483       H  0.33115511  0.41997462  0.11284388     0.18270
N1484       N  0.29769101  0.43597206  0.12819317    -0.88450
H1485       H  0.29560181  0.37026146  0.06427485     0.35640
H1486       H  0.31670038  0.38116563  0.05566973     0.40740
H1487       H  0.29212219  0.44954931  0.12274281     0.40360
H1488       H  0.31195416  0.43896611  0.13398403     0.35250
C1489       C  0.94894109  0.45316023  0.41218445    -0.26480
C1490       C  0.96320516  0.43788909  0.41479809    -0.14550
C1491       C  0.97509172  0.43776289  0.43237614     0.36080
C1492       C  0.97271812  0.45289812  0.44659832    -0.25930
C1493       C  0.95854043  0.46816335  0.44398431    -0.15170
C1494       C  0.94640846  0.46828343  0.42665622     0.37160
N1495       N  0.93204894  0.48402240  0.42353045    -0.89420
H1496       H  0.93984037  0.45336042  0.39872105     0.18280
H1497       H  0.98211935  0.45274246  0.45986617     0.18270
N1498       N  0.99033557  0.42307462  0.43586561    -0.88450
H1499       H  0.92433129  0.48186253  0.41005191     0.35640
H1500       H  0.94000741  0.49742528  0.42201402     0.40740
H1501       H  0.99994995  0.42268314  0.42348636     0.40360
H1502       H  0.98359043  0.40911214  0.43770957     0.35250
C1503       C  0.60764667  0.10046095  0.41501522    -0.26480
C1504       C  0.62329357  0.11444078  0.41447273    -0.14550
C1505       C  0.62368844  0.13022627  0.42865090     0.36080
C1506       C  0.60874190  0.13115426  0.44339230    -0.25930
C1507       C  0.59342865  0.11678338  0.44430973    -0.15170
C1508       C  0.59267946  0.10144699  0.42975429     0.37160
N1509       N  0.57663156  0.08705555  0.42985728    -0.89420
H1510       H  0.60726978  0.08853137  0.40401006     0.18280
H1511       H  0.60921025  0.14314097  0.45432878     0.18270
N1512       N  0.63841265  0.14594748  0.42818639    -0.88450
H1513       H  0.57843574  0.07668299  0.41826122     0.35640
H1514       H  0.56331201  0.09476380  0.42688958     0.40740
H1515       H  0.64762302  0.14511499  0.41558176     0.40360
H1516       H  0.64753016  0.14433783  0.44083920     0.35250
C1517       C  0.60831031  0.46672501  0.09396822    -0.26480
C1518       C  0.59313285  0.46750473  0.07942504    -0.14550
C1519       C  0.59259586  0.45285418  0.06415966     0.36080
C1520       C  0.60773939  0.43828282  0.06331310    -0.25930
C1521       C  0.62332388  0.43795516  0.07741584    -0.15170
C1522       C  0.62333475  0.45209734  0.09326433     0.37160
N1523       N  0.63771629  0.45168257  0.10932149    -0.89420
H1524       H  0.60858897  0.47766207  0.10596516     0.18280
H1525       H  0.60759109  0.42730636  0.05135073     0.18270
N1526       N  0.57661629  0.45272066  0.04967070    -0.88450
H1527       H  0.64725919  0.46396874  0.10752622     0.35640
H1528       H  0.64645287  0.43875422  0.10914334     0.40740
H1529       H  0.56327480  0.44973498  0.05736536     0.40360
H1530       H  0.57855130  0.44107246  0.03938731     0.35250
C1531       C  0.67211295  0.07509446  0.05638458    -0.26480
C1532       C  0.65390037  0.08481389  0.06011909    -0.14550
C1533       C  0.63661789  0.07935176  0.04943210     0.36080
C1534       C  0.63786880  0.06420368  0.03497956    -0.25930
C1535       C  0.65611187  0.05438556  0.03088041    -0.15170
C1536       C  0.67354474  0.06009519  0.04164127     0.37160
N1537       N  0.69254454  0.05068615  0.03778730    -0.89420
H1538       H  0.68532482  0.07951547  0.06475692     0.18280
H1539       H  0.62441908  0.06012744  0.02683608     0.18270
N1540       N  0.61784089  0.08917148  0.05340014    -0.88450
H1541       H  0.70339504  0.05576416  0.04790366     0.35640
H1542       H  0.69731631  0.05538704  0.02361005     0.40740
H1543       H  0.61367610  0.08570805  0.06811826     0.40360
H1544       H  0.60654793  0.08351472  0.04411266     0.35250
C1545       C  0.65283193  0.13276190  0.25333992    -0.26480
C1546       C  0.66569374  0.11646047  0.25665477    -0.14550
C1547       C  0.67340383  0.10580325  0.24001838     0.36080
C1548       C  0.66866584  0.11220502  0.22061120    -0.25930
C1549       C  0.65620404  0.12881651  0.21723199    -0.15170
C1550       C  0.64794509  0.13903827  0.23381000     0.37160
N1551       N  0.63449066  0.15556924  0.23081133    -0.89420
H1552       H  0.64682587  0.14085007  0.26608012     0.18280
H1553       H  0.67494217  0.10408331  0.20803279     0.18270
N1554       N  0.68538822  0.08803691  0.24208181    -0.88450
H1555       H  0.62988914  0.16150665  0.24456893     0.35640
H1556       H  0.62160811  0.15001161  0.22381472     0.40740
H1557       H  0.68613946  0.08305512  0.25687895     0.40360
H1558       H  0.69995869  0.09150315  0.23743642     0.35250
C1559       C  0.67346595  0.25377756  0.10952677    -0.26480
C1560       C  0.65857646  0.24371960  0.09857540    -0.14550
C1561       C  0.64908397  0.25375987  0.08246029     0.36080
C1562       C  0.65487631  0.27330029  0.07754599    -0.25930
C1563       C  0.67012476  0.28314410  0.08818427    -0.15170
C1564       C  0.67930211  0.27337673  0.10457955     0.37160
N1565       N  0.69410847  0.28353658  0.11649509    -0.89420
H1566       H  0.68064063  0.24627426  0.12201992     0.18280
H1567       H  0.64751689  0.28078787  0.06514538     0.18270
N1568       N  0.63303534  0.24489023  0.07128536    -0.88450
H1569       H  0.69941166  0.27422635  0.12792936     0.35640
H1570       H  0.68701743  0.29559565  0.12352681     0.40740
H1571       H  0.62194045  0.24015142  0.08130127     0.40360
H1572       H  0.63851307  0.23256611  0.06341952     0.35250
C1573       C  0.97970029  0.07302720  0.36933765    -0.26480
C1574       C  0.98015910  0.08631061  0.38561339    -0.14550
C1575       C  0.99491154  0.08412883  0.40055652     0.36080
C1576       C  0.00887459  0.06855436  0.39897455    -0.25930
C1577       C  0.00858775  0.05522253  0.38268328    -0.15170
C1578       C  0.99385377  0.05751503  0.36762009     0.37160
N1579       N  0.99300297  0.04392155  0.35093690    -0.89420
H1580       H  0.96819675  0.07475141  0.35798309     0.18280
H1581       H  0.02014881  0.06688858  0.41056037     0.18270
N1582       N  0.99511877  0.09712150  0.41774487    -0.88450
H1583       H  0.98144050  0.04790917  0.34112338     0.35640
H1584       H  0.98935694  0.02978115  0.35658398     0.40740
H1585       H  0.99971936  0.11125732  0.41289987     0.40360
H1586       H  0.00589556  0.09241542  0.42811587     0.35250
C1587       C  0.93686771  0.25838687  0.39289864    -0.26480
C1588       C  0.93852120  0.24330807  0.37844404    -0.14550
C1589       C  0.94604508  0.24802338  0.35917233     0.36080
C1590       C  0.95172138  0.26774906  0.35492534    -0.25930
C1591       C  0.95000762  0.28301485  0.36931146    -0.15170
C1592       C  0.94241988  0.27822196  0.38857885     0.37160
N1593       N  0.93978949  0.29346925  0.40353606    -0.89420
H1594       H  0.93104793  0.25465647  0.40761565     0.18280
H1595       H  0.95746440  0.27114106  0.34010869     0.18270
N1596       N  0.94752302  0.23349143  0.34332818    -0.88450
H1597       H  0.93443860  0.28732142  0.41693259     0.35640
H1598       H  0.92867807  0.30323148  0.39837601     0.40740
H1599       H  0.94187095  0.21956364  0.34754628     0.40360
H1600       H  0.96273709  0.23152807  0.34008238     0.35250
C1601       C  0.80680149  0.13282018  0.39386703    -0.26480
C1602       C  0.82199217  0.12794738  0.38020914    -0.14550
C1603       C  0.81700399  0.11757322  0.36235615     0.36080
C1604       C  0.79703827  0.11197582  0.35899578    -0.25930
C1605       C  0.78171587  0.11695274  0.37256522    -0.15170
C1606       C  0.78677214  0.12748362  0.39023616     0.37160
N1607       N  0.77166275  0.13339690  0.40428377    -0.89420
H1608       H  0.81051069  0.14088190  0.40747941     0.18280
H1609       H  0.79348232  0.10390070  0.34536828     0.18270
N1610       N  0.83148123  0.11295033  0.34701678    -0.88450
H1611       H  0.77210316  0.14897337  0.40566303     0.35640
H1612       H  0.77525161  0.12719371  0.41822924     0.40740
H1613       H  0.84555680  0.11892529  0.35018616     0.40360
H1614       H  0.82681529  0.12001912  0.33382308     0.35250
C1615       C  0.97461829  0.43008315  0.04404755    -0.26480
C1616       C  0.97759077  0.44190037  0.06120484    -0.14550
C1617       C  0.99530384  0.45334674  0.06294538     0.36080
C1618       C  0.00975336  0.45242052  0.04765192    -0.25930
C1619       C  0.00687303  0.44041379  0.03063578    -0.15170
C1620       C  0.98889364  0.42929152  0.02867407     0.37160
N1621       N  0.98402081  0.41789989  0.01103683    -0.89420
H1622       H  0.96098722  0.42139070  0.04246857     0.18280
H1623       H  0.02337753  0.46116631  0.04899791     0.18270
N1624       N  0.99839956  0.46618215  0.07996294    -0.88450
H1625       H  0.98437971  0.40274819  0.01492054     0.35640
H1626       H  0.99425294  0.42011632  0.99942820     0.40740
H1627       H  0.98743666  0.47735516  0.07948148     0.40360
H1628       H  0.01226849  0.47343093  0.07898118     0.35250
C1629       C  0.94233486  0.39764369  0.21990102    -0.26480
C1630       C  0.93685297  0.41770381  0.21746847    -0.14550
C1631       C  0.93803555  0.43088054  0.23398678     0.36080
C1632       C  0.94397033  0.42340004  0.25272343    -0.25930
C1633       C  0.94910994  0.40313129  0.25542461    -0.15170
C1634       C  0.94862441  0.39028162  0.23857478     0.37160
N1635       N  0.95491453  0.36986495  0.24008985    -0.89420
H1636       H  0.94181559  0.38759885  0.20714536     0.18280
H1637       H  0.94419751  0.43361794  0.26530387     0.18270
N1638       N  0.93316264  0.45179569  0.23244880    -0.88450
H1639       H  0.96675211  0.36762560  0.23005179     0.35640
H1640       H  0.94296270  0.36075768  0.23562980     0.40740
H1641       H  0.92882298  0.45574145  0.21794387     0.40360
H1642       H  0.94621228  0.45990552  0.23556157     0.35250
C1643       C  0.81891822  0.40018865  0.08843588    -0.26480
C1644       C  0.82066373  0.41710992  0.10075812    -0.14550
C1645       C  0.80316017  0.42760760  0.10652582     0.36080
C1646       C  0.78439552  0.42058600  0.10020363    -0.25930
C1647       C  0.78256665  0.40334865  0.08828487    -0.15170
C1648       C  0.80006994  0.39317098  0.08212606     0.37160
N1649       N  0.79870426  0.37594099  0.06930165    -0.89420
H1650       H  0.83236220  0.39227567  0.08389845     0.18280
H1651       H  0.77108514  0.42862183  0.10488864     0.18270
N1652       N  0.80376246  0.44573126  0.11813401    -0.88450
H1653       H  0.81295718  0.37014273  0.06630238     0.35640
H1654       H  0.79282390  0.38068829  0.05556511     0.40740
H1655       H  0.81839007  0.45053438  0.12085941     0.40360
H1656       H  0.79716968  0.44272253  0.13203924     0.35250
C1657       C  0.60442999  0.93684345  0.40990815    -0.26480
C1658       C  0.62360050  0.92906057  0.41392345    -0.14550
C1659       C  0.62725708  0.91976897  0.43266794     0.36080
C1660       C  0.61189779  0.91911841  0.44709438    -0.25930
C1661       C  0.59304579  0.92743705  0.44317131    -0.15170
C1662       C  0.58912330  0.93617533  0.42436310     0.37160
N1663       N  0.56944973  0.94373915  0.41979800    -0.89420
H1664       H  0.60143354  0.94379521  0.39554373     0.18280
H1665       H  0.61465520  0.91219666  0.46154040     0.18270
N1666       N  0.64631471  0.91065578  0.43690127    -0.88450
H1667       H  0.56878306  0.94872977  0.40494850     0.35640
H1668       H  0.56696202  0.95628992  0.42879914     0.40740
H1669       H  0.64803256  0.89858264  0.42708442     0.40360
H1670       H  0.64654196  0.90472432  0.45141440     0.35250
C1671       C  0.94459840  0.58414028  0.42503817    -0.26480
C1672       C  0.96192527  0.58526406  0.41318090    -0.14550
C1673       C  0.97768399  0.57161690  0.41635459     0.36080
C1674       C  0.97582738  0.55712242  0.43148701    -0.25930
C1675       C  0.95843454  0.55577980  0.44335693    -0.15170
C1676       C  0.94259529  0.56948204  0.44005614     0.37160
N1677       N  0.92473208  0.56876019  0.45212021    -0.89420
H1678       H  0.93259263  0.59478630  0.42255118     0.18280
H1679       H  0.98803541  0.54670363  0.43391383     0.18270
N1680       N  0.99582282  0.57302024  0.40476667    -0.88450
H1681       H  0.91445927  0.57962843  0.44745852     0.35640
H1682       H  0.92879574  0.57245655  0.46680584     0.40740
H1683       H  0.99236933  0.56900864  0.39002536     0.40360
H1684       H  0.00639016  0.56260298  0.40978802     0.35250
C1685       C  0.60778544  0.58826255  0.08694650    -0.26480
C1686       C  0.62529308  0.58403690  0.07596937    -0.14550
C1687       C  0.62780613  0.56479521  0.06753513     0.36080
C1688       C  0.61263197  0.55041776  0.06997660    -0.25930
C1689       C  0.59514681  0.55476743  0.08076779    -0.15170
C1690       C  0.59274863  0.57375069  0.08958871     0.37160
N1691       N  0.57471196  0.57850279  0.10039248    -0.89420
H1692       H  0.60584825  0.60292356  0.09358425     0.18280
H1693       H  0.61430124  0.53577810  0.06318388     0.18270
N1694       N  0.64539242  0.56006709  0.05600291    -0.88450
H1695       H  0.57492447  0.59340803  0.10514911     0.35640
H1696       H  0.57448231  0.56974765  0.11338150     0.40740
H1697       H  0.64518569  0.56901288  0.04313834     0.40360
H1698       H  0.64497022  0.54521291  0.05109961     0.35250
C1699       C  0.97526003  0.59321546  0.04403842    -0.26480
C1700       C  0.97664033  0.58101245  0.06112302    -0.14550
C1701       C  0.99211139  0.56654123  0.06217784     0.36080
C1702       C  0.00604754  0.56501023  0.04650179    -0.25930
C1703       C  0.00509358  0.57781029  0.02984054    -0.15170
C1704       C  0.98930046  0.59178734  0.02840467     0.37160
N1705       N  0.98748011  0.60434742  0.01097872    -0.89420
H1706       H  0.96328300  0.60412217  0.04298927     0.18280
H1707       H  0.01801344  0.55408965  0.04759726     0.18270
N1708       N  0.99375055  0.55284287  0.07861754    -0.88450
H1709       H  0.97507864  0.61383036  0.01228500     0.35640
H1710       H  0.98469629  0.59505181  0.99867401     0.40740
H1711       H  0.98007792  0.54535324  0.08026280     0.40360
H1712       H  0.99676123  0.56087695  0.09168528     0.35250
C1713       C  0.95346522  0.61049880  0.22568707    -0.26480
C1714       C  0.93655246  0.61976030  0.21720845    -0.14550
C1715       C  0.92649531  0.63477084  0.22825955     0.36080
C1716       C  0.93328909  0.63974746  0.24758612    -0.25930
C1717       C  0.95008275  0.63036290  0.25611100    -0.15170
C1718       C  0.96048817  0.61570075  0.24481340     0.37160
N1719       N  0.97872123  0.60647166  0.25164441    -0.89420
H1720       H  0.96149613  0.59916670  0.21729527     0.18280
H1721       H  0.92531619  0.65101177  0.25612845     0.18270
N1722       N  0.90971873  0.64526673  0.21974318    -0.88450
H1723       H  0.97547717  0.59158365  0.25520526     0.35640
H1724       H  0.98446611  0.61336113  0.26443232     0.40740
H1725       H  0.91502866  0.65347539  0.20748979     0.40360
H1726       H  0.90391508  0.65565329  0.22992902     0.35250
C1727       C  0.81151572  0.63448683  0.11037914    -0.26480
C1728       C  0.82104867  0.61903733  0.09973033    -0.14550
C1729       C  0.81032357  0.60924908  0.08421002     0.36080
C1730       C  0.79069349  0.61518619  0.07971555    -0.25930
C1731       C  0.78133589  0.63081680  0.09017705    -0.15170
C1732       C  0.79178380  0.64039390  0.10589539     0.37160
N1733       N  0.78215654  0.65561655  0.11769294    -0.89420
H1734       H  0.81947191  0.64195884  0.12240133     0.18280
H1735       H  0.78271661  0.60756080  0.06779275     0.18270
N1736       N  0.81849975  0.59274924  0.07323306    -0.88450
H1737       H  0.79192691  0.66116623  0.12862415     0.35640
H1738       H  0.77025530  0.64887539  0.12536398     0.40740
H1739       H  0.82370311  0.58199729  0.08336326     0.40360
H1740       H  0.83033302  0.59783973  0.06437000     0.35250
C1741       C  0.99577265  0.93611786  0.40231014    -0.26480
C1742       C  0.97763468  0.93785428  0.39182458    -0.14550
C1743       C  0.97501889  0.95378274  0.37810796     0.36080
C1744       C  0.99033329  0.96810654  0.37586323    -0.25930
C1745       C  0.00804938  0.96682060  0.38711233    -0.15170
C1746       C  0.01088517  0.95042685  0.40021406     0.37160
N1747       N  0.02913556  0.94764642  0.41122216    -0.89420
H1748       H  0.99805632  0.92378770  0.41262211     0.18280
H1749       H  0.98829602  0.98052658  0.36560585     0.18270
N1750       N  0.95700404  0.95522268  0.36635378    -0.88450
H1751       H  0.03094808  0.95951931  0.42123523     0.35640
H1752       H  0.04110775  0.94762771  0.40109166     0.40740
H1753       H  0.95651531  0.94276008  0.35689133     0.40360
H1754       H  0.95745727  0.96782994  0.35707288     0.35250
C1755       C  0.80294937  0.88805214  0.39046122    -0.26480
C1756       C  0.81931540  0.90035970  0.38555573    -0.14550
C1757       C  0.81582527  0.91799648  0.37438850     0.36080
C1758       C  0.79625904  0.92292733  0.36845206    -0.25930
C1759       C  0.77998704  0.91064946  0.37342135    -0.15170
C1760       C  0.78336864  0.89285418  0.38447350     0.37160
N1761       N  0.76754083  0.87911718  0.38959156    -0.89420
H1762       H  0.80535934  0.87445631  0.39898313     0.18280
H1763       H  0.79376274  0.93647361  0.35985528     0.18270
N1764       N  0.83208817  0.93066431  0.36842362    -0.88450
H1765       H  0.77077270  0.86545285  0.38267664     0.35640
H1766       H  0.75371712  0.88364643  0.38388306     0.40740
H1767       H  0.82942001  0.94498659  0.37413883     0.40360
H1768       H  0.83210728  0.93159791  0.35277065     0.35250
C1769       C  0.94774764  0.77212401  0.39773848    -0.26480
C1770       C  0.93382033  0.78249631  0.38586615    -0.14550
C1771       C  0.92717006  0.77376134  0.36773506     0.36080
C1772       C  0.93404855  0.75479064  0.36222815    -0.25930
C1773       C  0.94749509  0.74408272  0.37436831    -0.15170
C1774       C  0.95467936  0.75300552  0.39220444     0.37160
N1775       N  0.96925632  0.74286595  0.40440847    -0.89420
H1776       H  0.95324453  0.77900294  0.41139165     0.18280
H1777       H  0.92852075  0.74826095  0.34842607     0.18270
N1778       N  0.91405574  0.78403514  0.35418993    -0.88450
H1779       H  0.97290643  0.75144853  0.41699958     0.35640
H1780       H  0.98239168  0.74151851  0.39594695     0.40740
H1781       H  0.92032905  0.79795482  0.35072653     0.40360
H1782       H  0.90020246  0.78616728  0.36113759     0.35250
C1783       C  0.66032418  0.95112209  0.06159661    -0.26480
C1784       C  0.64587652  0.93611223  0.05846246    -0.14550
C1785       C  0.63469557  0.93609263  0.04042781     0.36080
C1786       C  0.63792797  0.95109226  0.02626533    -0.25930
C1787       C  0.65223612  0.96611353  0.02942422    -0.15170
C1788       C  0.66368362  0.96614150  0.04718515     0.37160
N1789       N  0.67811229  0.98172011  0.05080478    -0.89420
H1790       H  0.66887110  0.95122398  0.07541937     0.18280
H1791       H  0.62899911  0.95112149  0.01267092     0.18270
N1792       N  0.61925000  0.92173709  0.03641841    -0.88450
H1793       H  0.68523474  0.97953008  0.06460320     0.35640
H1794       H  0.67028756  0.99523317  0.05191811     0.40740
H1795       H  0.60918113  0.92157212  0.04843650     0.40360
H1796       H  0.62571837  0.90762720  0.03479411     0.35250
C1797       C  0.65091522  0.92124801  0.24620656    -0.26480
C1798       C  0.66378409  0.90860751  0.25701080    -0.14550
C1799       C  0.66978830  0.89019291  0.24838075     0.36080
C1800       C  0.66338717  0.88533505  0.22899290    -0.25930
C1801       C  0.65076386  0.89808187  0.21799366    -0.15170
C1802       C  0.64425730  0.91618023  0.22683261     0.37160
N1803       N  0.63069244  0.92919569  0.21632044    -0.89420
H1804       H  0.64610191  0.93521206  0.25292016     0.18280
H1805       H  0.66837165  0.87133307  0.22251455     0.18270
N1806       N  0.68148255  0.87556371  0.25901503    -0.88450
H1807       H  0.62752905  0.94192662  0.22486355     0.35640
H1808       H  0.61713654  0.92152203  0.21456756     0.40740
H1809       H  0.68297937  0.87895028  0.27419296     0.40360
H1810       H  0.69580890  0.87533226  0.25264572     0.35250
C1811       C  0.63731340  0.76544281  0.10636336    -0.26480
C1812       C  0.65026588  0.78153011  0.10267635    -0.14550
C1813       C  0.66869800  0.77807202  0.09271472     0.36080
C1814       C  0.67354807  0.75864682  0.08658369    -0.25930
C1815       C  0.66066511  0.74242716  0.09026331    -0.15170
C1816       C  0.64229659  0.74589084  0.10034236     0.37160
N1817       N  0.62898681  0.72959937  0.10491970    -0.89420
H1818       H  0.62323093  0.76817904  0.11401171     0.18280
H1819       H  0.68770264  0.75622649  0.07897500     0.18270
N1820       N  0.68324964  0.79359027  0.08923950    -0.88450
H1821       H  0.61603607  0.73479448  0.11206705     0.35640
H1822       H  0.63630294  0.72029747  0.11518781     0.40740
H1823       H  0.67924668  0.80709742  0.09594083     0.40360
H1824       H  0.68402597  0.79603236  0.07377095     0.35250
C1825       C  0.14649699  0.58968464  0.43253887    -0.26480
C1826       C  0.14174838  0.58386248  0.41280257    -0.14550
C1827       C  0.13932936  0.56318983  0.40862059     0.36080
C1828       C  0.14185467  0.54911489  0.42409465    -0.25930
C1829       C  0.14616635  0.55512248  0.44371914    -0.15170
C1830       C  0.14843975  0.57567905  0.44805075     0.37160
N1831       N  0.15190510  0.58300101  0.46802631    -0.89420
H1832       H  0.14851234  0.60533282  0.43617671     0.18280
H1833       H  0.13974014  0.53332814  0.42099087     0.18270
N1834       N  0.13357582  0.55646312  0.38898609    -0.88450
H1835       H  0.16610076  0.58964848  0.46825311     0.35640
H1836       H  0.15212594  0.57143387  0.47850981     0.40740
H1837       H  0.11903978  0.56167562  0.38628693     0.40360
H1838       H  0.13285197  0.54084240  0.38843040     0.35250
C1839       C  0.49340435  0.91799180  0.41035525    -0.26480
C1840       C  0.47598570  0.92927654  0.41396222    -0.14550
C1841       C  0.47369236  0.93915594  0.43254958     0.36080
C1842       C  0.48881848  0.93746925  0.44708574    -0.25930
C1843       C  0.50607961  0.92606338  0.44351662    -0.15170
C1844       C  0.50843264  0.91613561  0.42503113     0.37160
N1845       N  0.52638408  0.90494840  0.42091727    -0.89420
H1846       H  0.49519702  0.91039350  0.39612013     0.18280
H1847       H  0.48722413  0.94522263  0.46127362     0.18270
N1848       N  0.45631964  0.95128800  0.43643293    -0.88450
H1849       H  0.52618978  0.89947287  0.40623037     0.35640
H1850       H  0.52639169  0.89242368  0.43030577     0.40740
H1851       H  0.45668515  0.96335824  0.42645902     0.40360
H1852       H  0.45690819  0.95734756  0.45087809     0.35250
C1853       C  0.48912873  0.55101280  0.07170917    -0.26480
C1854       C  0.50680139  0.55528249  0.08222243    -0.14550
C1855       C  0.50926601  0.57412152  0.09132583     0.36080
C1856       C  0.49405561  0.58855309  0.08930505    -0.25930
C1857       C  0.47631318  0.58436509  0.07868744    -0.15170
C1858       C  0.47378447  0.56528007  0.06990306     0.37160
N1859       N  0.45599642  0.56060466  0.05865803    -0.89420
H1860       H  0.48743077  0.53652362  0.06463171     0.18280
H1861       H  0.49602917  0.60310935  0.09616410     0.18270
N1862       N  0.52751004  0.57881677  0.10179830    -0.88450
H1863       H  0.45643669  0.54585175  0.05345586     0.35640
H1864       H  0.45585216  0.56980036  0.04597084     0.40740
H1865       H  0.52812074  0.56979190  0.11458765     0.40360
H1866       H  0.52728549  0.59361834  0.10686814     0.35250
C1867       C  0.46182191  0.95068751  0.02681341    -0.26480
C1868       C  0.44732146  0.96553893  0.02990350    -0.14550
C1869       C  0.43552154  0.96513575  0.04743855     0.36080
C1870       C  0.43882376  0.94996515  0.06172732    -0.25930
C1871       C  0.45358557  0.93523041  0.05872350    -0.15170
C1872       C  0.46504678  0.93559001  0.04086268     0.37160
N1873       N  0.48081286  0.92157634  0.03693704    -0.89420
H1874       H  0.47099316  0.95096842  0.01338154     0.18280
H1875       H  0.43004386  0.94979339  0.07540402     0.18270
N1876       N  0.42085566  0.98047749  0.05102594    -0.88450
H1877       H  0.47462145  0.90739056  0.03491680     0.35640
H1878       H  0.49066816  0.92139836  0.04912808     0.40740
H1879       H  0.42855581  0.99401450  0.05259793     0.40360
H1880       H  0.41345058  0.97795131  0.06461905     0.35250
C1881       C  0.45465512  0.91642909  0.22518881    -0.26480
C1882       C  0.44883289  0.89745229  0.21819465    -0.14550
C1883       C  0.43638429  0.88539921  0.23043232     0.36080
C1884       C  0.43035181  0.89250033  0.24932411    -0.25930
C1885       C  0.43620756  0.91141958  0.25625858    -0.15170
C1886       C  0.44844036  0.92363204  0.24393329     0.37160
N1887       N  0.45409279  0.94367915  0.24936117    -0.89420
H1888       H  0.46400726  0.92592793  0.21590732     0.18280
H1889       H  0.42096550  0.88317355  0.25875642     0.18270
N1890       N  0.42940351  0.86625660  0.22352949    -0.88450
H1891       H  0.46958367  0.94379618  0.25178659     0.35640
H1892       H  0.44721790  0.94839807  0.26257862     0.40740
H1893       H  0.41993614  0.86879697  0.21129120     0.40360
H1894       H  0.42069733  0.85921090  0.23450332     0.35250
C1895       C  0.46201682  0.77058317  0.08929472    -0.26480
C1896       C  0.44977111  0.78145437  0.10246991    -0.14550
C1897       C  0.43113912  0.77324952  0.10853145     0.36080
C1898       C  0.42573428  0.75410188  0.10196138    -0.25930
C1899       C  0.43812811  0.74298534  0.08908291    -0.15170
C1900       C  0.45638058  0.75149233  0.08242762     0.37160
N1901       N  0.46896271  0.74095127  0.06847691    -0.89420
H1902       H  0.47608454  0.77705665  0.08434659     0.18280
H1903       H  0.41159630  0.74790817  0.10702349     0.18270
N1904       N  0.41683837  0.78409856  0.12045299    -0.88450
H1905       H  0.48186887  0.74924040  0.06523458     0.35640
H1906       H  0.46101289  0.73960075  0.05502908     0.40740
H1907       H  0.42079757  0.79905936  0.12235534     0.40360
H1908       H  0.41633363  0.77741603  0.13462107     0.35250
C1909       C  0.09151332  0.95261746  0.40121330    -0.26480
C1910       C  0.09414203  0.96676489  0.38587450    -0.14550
C1911       C  0.11179782  0.96611046  0.37404738     0.36080
C1912       C  0.12604890  0.95115961  0.37781795    -0.25930
C1913       C  0.12346710  0.93718837  0.39335107    -0.15170
C1914       C  0.10605459  0.93818731  0.40547830     0.37160
N1915       N  0.10284053  0.92551809  0.42266204    -0.89420
H1916       H  0.07820738  0.95319567  0.41055178     0.18280
H1917       H  0.13947218  0.95063352  0.36865300     0.18270
N1918       N  0.11649417  0.98079428  0.35899328    -0.88450
H1919       H  0.10096307  0.93481371  0.43513678     0.35640
H1920       H  0.11541054  0.91689975  0.42598870     0.40740
H1921       H  0.10643830  0.99270903  0.35889480     0.40360
H1922       H  0.11571023  0.97376793  0.34500980     0.35250
C1923       C  0.28930326  0.91297786  0.39347700    -0.26480
C1924       C  0.28133528  0.89538639  0.38514302    -0.14550
C1925       C  0.29229656  0.88546059  0.36992239     0.36080
C1926       C  0.31084367  0.89305663  0.36377550    -0.25930
C1927       C  0.31896389  0.91044566  0.37231941    -0.15170
C1928       C  0.30775822  0.92084739  0.38710204     0.37160
N1929       N  0.31411194  0.93965800  0.39548953    -0.89420
H1930       H  0.28086542  0.92099942  0.40480867     0.18280
H1931       H  0.31915021  0.88504975  0.35233865     0.18270
N1932       N  0.28480613  0.86809462  0.35982816    -0.88450
H1933       H  0.30283266  0.95013208  0.39256665     0.35640
H1934       H  0.32678933  0.94522964  0.38825944     0.40740
H1935       H  0.27046173  0.87116019  0.35429366     0.40360
H1936       H  0.28415199  0.85623332  0.36997226     0.35250
C1937       C  0.17713028  0.76864393  0.37657611    -0.26480
C1938       C  0.16469925  0.77980937  0.38935257    -0.14550
C1939       C  0.14657630  0.77121688  0.39624932     0.36080
C1940       C  0.14106970  0.75197119  0.38968337    -0.25930
C1941       C  0.15329466  0.74107763  0.37650373    -0.15170
C1942       C  0.17182375  0.74939379  0.37023917     0.37160
N1943       N  0.18607982  0.73858748  0.35823481    -0.89420
H1944       H  0.19116604  0.77492479  0.37133315     0.18280
H1945       H  0.12703016  0.74549291  0.39469961     0.18270
N1946       N  0.13393595  0.78190129  0.41003770    -0.88450
H1947       H  0.18607336  0.74491288  0.34389349     0.35640
H1948       H  0.18244218  0.72348295  0.35687228     0.40740
H1949       H  0.14192329  0.78360880  0.42342205     0.40360
H1950       H  0.12113485  0.77353770  0.41349547     0.35250
C1951       C  0.10477894  0.58937433  0.06373664    -0.26480
C1952       C  0.12327293  0.57981863  0.06054082    -0.14550
C1953       C  0.12564800  0.56779069  0.04318752     0.36080
C1954       C  0.10995842  0.56630408  0.02928752    -0.25930
C1955       C  0.09186797  0.57661063  0.03212321    -0.15170
C1956       C  0.08898175  0.58775077  0.04996416     0.37160
N1957       N  0.07025308  0.59731385  0.05484489    -0.89420
H1958       H  0.10252105  0.59832665  0.07709348     0.18280
H1959       H  0.11214278  0.55745139  0.01584040     0.18270
N1960       N  0.14348308  0.55646407  0.03943512    -0.88450
H1961       H  0.06523320  0.59123406  0.06840258     0.35640
H1962       H  0.05907964  0.59397349  0.04443183     0.40740
H1963       H  0.14673443  0.54781489  0.05209017     0.40360
H1964       H  0.15532259  0.56625706  0.03660496     0.35250
C1965       C  0.30391167  0.63273445  0.07547633    -0.26480
C1966       C  0.31927005  0.63037719  0.08960864    -0.14550
C1967       C  0.31462233  0.62286790  0.10890377     0.36080
C1968       C  0.29475303  0.61777630  0.11344631    -0.25930
C1969       C  0.27925225  0.62004521  0.09934136    -0.15170
C1970       C  0.28392894  0.62773215  0.08010377     0.37160
N1971       N  0.26842607  0.63091886  0.06547779    -0.89420
H1972       H  0.30755412  0.63858244  0.06075267     0.18280
H1973       H  0.29145878  0.61196473  0.12825391     0.18270
N1974       N  0.32939839  0.62079687  0.12449142    -0.88450
H1975       H  0.27446540  0.63636032  0.05206746     0.35640
H1976       H  0.25895998  0.64210328  0.07099874     0.40740
H1977       H  0.34343676  0.62613162  0.12013873     0.40360
H1978       H  0.33100486  0.60553268  0.12752163     0.35250
C1979       C  0.14186857  0.61559869  0.24596450    -0.26480
C1980       C  0.15232214  0.63121122  0.25540143    -0.14550
C1981       C  0.16856745  0.64028971  0.24523546     0.36080
C1982       C  0.17366608  0.63391907  0.22593107    -0.25930
C1983       C  0.16306166  0.61851312  0.21627674    -0.15170
C1984       C  0.14706845  0.60908624  0.22655721     0.37160
N1985       N  0.13652056  0.59260718  0.21758578    -0.89420
H1986       H  0.12968368  0.60831903  0.25388187     0.18280
H1987       H  0.18603747  0.64126064  0.21839445     0.18270
N1988       N  0.18078901  0.65537542  0.25437440    -0.88450
H1989       H  0.12513473  0.58747962  0.22707427     0.35640
H1990       H  0.14670691  0.58081938  0.21601799     0.40740
H1991       H  0.18609149  0.64998990  0.26810994     0.40360
H1992       H  0.17212144  0.66813285  0.25680396     0.35250
C1993       C  0.60546014  0.93943358  0.56301401    -0.26480
C1994       C  0.62398130  0.93008301  0.55945606    -0.14550
C1995       C  0.62648277  0.91875858  0.54165377     0.36080
C1996       C  0.61078821  0.91758062  0.52779350    -0.25930
C1997       C  0.59258587  0.92750102  0.53109996    -0.15170
C1998       C  0.58965196  0.93813882  0.54922970     0.37160
N1999       N  0.57084607  0.94736604  0.55444569    -0.89420
H2000       H  0.60315609  0.94777418  0.57676099     0.18280
H2001       H  0.61298117  0.90913225  0.51408545     0.18270
N2002       N  0.64439378  0.90772116  0.53742882    -0.88450
H2003       H  0.56582923  0.94070752  0.56772886     0.35640
H2004       H  0.55972699  0.94443870  0.54385235     0.40740
H2005       H  0.64777598  0.89861199  0.54971984     0.40360
H2006       H  0.65612215  0.91772069  0.53486099     0.35250
C2007       C  0.62667992  0.56886730  0.88615043    -0.26480
C2008       C  0.62272672  0.58579096  0.89799945    -0.14550
C2009       C  0.60402448  0.58741922  0.90782670     0.36080
C2010       C  0.58976001  0.57215531  0.90550411    -0.25930
C2011       C  0.59374342  0.55525186  0.89372273    -0.15170
C2012       C  0.61250557  0.55354351  0.88390304     0.37160
N2013       N  0.61819461  0.53623563  0.87242040    -0.89420
H2014       H  0.64099355  0.56743981  0.87858713     0.18280
H2015       H  0.57543912  0.57334296  0.91312041     0.18270
N2016       N  0.59973563  0.60423143  0.92056528    -0.88450
H2017       H  0.61965655  0.54068311  0.85745712     0.35640
H2018       H  0.60737958  0.52498866  0.87288574     0.40740
H2019       H  0.60959050  0.60358766  0.93274497     0.40360
H2020       H  0.58524130  0.60320043  0.92647318     0.35250
C2021       C  0.94376165  0.57130140  0.53001086    -0.26480
C2022       C  0.95630663  0.55455636  0.53185065    -0.14550
C2023       C  0.96921864  0.55305682  0.54872569     0.36080
C2024       C  0.97010461  0.56891518  0.56243907    -0.25930
C2025       C  0.95818084  0.58602966  0.56014191    -0.15170
C2026       C  0.94455587  0.58699903  0.54388551     0.37160
N2027       N  0.93090733  0.60334915  0.54135883    -0.89420
H2028       H  0.93357737  0.57243591  0.51738501     0.18280
H2029       H  0.98023276  0.56779581  0.57511015     0.18270
N2030       N  0.98130147  0.53566575  0.55277735    -0.88450
H2031       H  0.93905072  0.61634776  0.53841504     0.35640
H2032       H  0.92276576  0.60520351  0.55463044     0.40740
H2033       H  0.97826663  0.52405959  0.54282315     0.40360
H2034       H  0.97709834  0.53018588  0.56685932     0.35250
C2035       C  0.97574264  0.56738334  0.92663437    -0.26480
C2036       C  0.97818378  0.58168990  0.91137763    -0.14550
C2037       C  0.99529856  0.59421115  0.91167338     0.36080
C2038       C  0.00938346  0.59223546  0.92705959    -0.25930
C2039       C  0.00707194  0.57787069  0.94222805    -0.15170
C2040       C  0.99007757  0.56525695  0.94203439     0.37160
N2041       N  0.98713166  0.55080461  0.95773676    -0.89420
H2042       H  0.96251732  0.55794968  0.92659708     0.18280
H2043       H  0.02230840  0.60208674  0.92716247     0.18270
N2044       N  0.99839364  0.60969435  0.89713645    -0.88450
H2045       H  0.97391890  0.54271552  0.95534423     0.35640
H2046       H  0.98517434  0.55866154  0.97115606     0.40740
H2047       H  0.98572101  0.61889709  0.89681143     0.40360
H2048       H  0.00041090  0.60318202  0.88306455     0.35250
C2049       C  0.80552396  0.61007997  0.86678582    -0.26480
C2050       C  0.82133529  0.62104261  0.87526463    -0.14550
C2051       C  0.81691867  0.63661013  0.88901201     0.36080
C2052       C  0.79685597  0.64069724  0.89385297    -0.25930
C2053       C  0.78103463  0.62968878  0.88542500    -0.15170
C2054       C  0.78543003  0.61419441  0.87169916     0.37160
N2055       N  0.76951969  0.60306661  0.86234879    -0.89420
H2056       H  0.80890450  0.59827227  0.85617138     0.18280
H2057       H  0.79359621  0.65273421  0.90424257     0.18270
N2058       N  0.83212087  0.64921896  0.89763681    -0.88450
H2059       H  0.77532554  0.59211741  0.85277559     0.35640
H2060       H  0.76141486  0.61299717  0.85334028     0.40740
H2061       H  0.84633758  0.64623989  0.89187780     0.40360
H2062       H  0.83258573  0.64627617  0.91303059     0.35250
C2063       C  0.92883831  0.63651258  0.74890897    -0.26480
C2064       C  0.93564254  0.61816619  0.75658115    -0.14550
C2065       C  0.94823072  0.60604746  0.74449774     0.36080
C2066       C  0.95397272  0.61283153  0.72543942    -0.25930
C2067       C  0.94717076  0.63118669  0.71773144    -0.15170
C2068       C  0.93428225  0.64309652  0.72961609     0.37160
N2069       N  0.92627885  0.66154254  0.72195349    -0.89420
H2070       H  0.91915516  0.64579958  0.75805468     0.18280
H2071       H  0.96363178  0.60340745  0.71641356     0.18270
N2072       N  0.95458629  0.58635845  0.75038981    -0.88450
H2073       H  0.91728307  0.66857107  0.73269125     0.35640
H2074       H  0.91688252  0.65800105  0.70991167     0.40740
H2075       H  0.94687734  0.58113198  0.76294028     0.40360
H2076       H  0.96983862  0.58709955  0.75394755     0.35250
C2077       C  0.66199905  0.93934742  0.92363643    -0.26480
C2078       C  0.64509168  0.94066505  0.91114953    -0.14550
C2079       C  0.63119148  0.95626986  0.91398698     0.36080
C2080       C  0.63433753  0.97006278  0.92948749    -0.25930
C2081       C  0.65116587  0.96878933  0.94211023    -0.15170
C2082       C  0.66527802  0.95333348  0.93906344     0.37160
N2083       N  0.68252612  0.95155018  0.95187715    -0.89420
H2084       H  0.67257986  0.92724030  0.92142533     0.18280
H2085       H  0.62350849  0.98194487  0.93171328     0.18270
N2086       N  0.61341281  0.95749716  0.90183930    -0.88450
H2087       H  0.69148403  0.93950568  0.94741961     0.35640
H2088       H  0.67737670  0.94819933  0.96630699     0.40740
H2089       H  0.61779504  0.96209113  0.88752507     0.40360
H2090       H  0.60383764  0.96867461  0.90719121     0.35250
C2091       C  0.66920204  0.89624683  0.75161654    -0.26480
C2092       C  0.64874458  0.89773618  0.75594013    -0.14550
C2093       C  0.63565489  0.90597027  0.74151254     0.36080
C2094       C  0.64335652  0.91190105  0.72286949    -0.25930
C2095       C  0.66390572  0.91005677  0.71805784    -0.15170
C2096       C  0.67706859  0.90275345  0.73316369     0.37160
N2097       N  0.69837492  0.90224439  0.73016849    -0.89420
H2098       H  0.67922617  0.89042598  0.76301454     0.18280
H2099       H  0.63285518  0.91792822  0.71212237     0.18270
N2100       N  0.61449383  0.90836803  0.74504663    -0.88450
H2101       H  0.70561466  0.89544540  0.74229837     0.35640
H2102       H  0.70333735  0.91708986  0.72994806     0.40740
H2103       H  0.61030550  0.90335519  0.75925932     0.40360
H2104       H  0.60690107  0.89932988  0.73474272     0.35250
C2105       C  0.64296919  0.76608850  0.86317463    -0.26480
C2106       C  0.65169753  0.78241586  0.87308779    -0.14550
C2107       C  0.66582113  0.77889771  0.88850981     0.36080
C2108       C  0.67069637  0.75912284  0.89377594    -0.25930
C2109       C  0.66176491  0.74281327  0.88403929    -0.15170
C2110       C  0.64772280  0.74640996  0.86852718     0.37160
N2111       N  0.63867029  0.73048807  0.85735744    -0.89420
H2112       H  0.63226888  0.76863974  0.85120674     0.18280
H2113       H  0.68165817  0.75639219  0.90546361     0.18270
N2114       N  0.67564375  0.79534504  0.89833796    -0.88450
H2115       H  0.62966457  0.72204231  0.86695903     0.35640
H2116       H  0.65000436  0.72138772  0.85151815     0.40740
H2117       H  0.68441166  0.80269604  0.88761794     0.40360
H2118       H  0.68549896  0.79016759  0.90937732     0.35250
C2119       C  0.99285706  0.96417029  0.59946215    -0.26480
C2120       C  0.00809921  0.96660825  0.58511810    -0.14550
C2121       C  0.00836120  0.95409851  0.56806217     0.36080
C2122       C  0.99330692  0.93973593  0.56545706    -0.25930
C2123       C  0.97774063  0.93781133  0.57938866    -0.15170
C2124       C  0.97757588  0.94991344  0.59671090     0.37160
N2125       N  0.96203473  0.94753789  0.61147126    -0.89420
H2126       H  0.99263998  0.97366394  0.61262946     0.18280
H2127       H  0.99356607  0.93028962  0.55224570     0.18270
N2128       N  0.02401143  0.95575146  0.55342701    -0.88450
H2129       H  0.96407815  0.95761415  0.62328851     0.35640
H2130       H  0.96345182  0.93319446  0.61757801     0.40740
H2131       H  0.01740733  0.95884401  0.53954400     0.40360
H2132       H  0.03122613  0.94190301  0.55238753     0.35250
C2133       C  0.92370905  0.76680700  0.58373083    -0.26480
C2134       C  0.93673111  0.78295480  0.58716688    -0.14550
C2135       C  0.95537194  0.77932045  0.59654514     0.36080
C2136       C  0.96057155  0.75979239  0.60225502    -0.25930
C2137       C  0.94757454  0.74370184  0.59875926    -0.15170
C2138       C  0.92877948  0.74726238  0.58947023     0.37160
N2139       N  0.91428578  0.73168155  0.58597333    -0.89420
H2140       H  0.90933395  0.76938185  0.57659764     0.18280
H2141       H  0.97488176  0.75718550  0.60952301     0.18270
N2142       N  0.96882203  0.79543410  0.60095715    -0.88450
H2143       H  0.90137041  0.73529399  0.59409964     0.35640
H2144       H  0.91906249  0.71789641  0.59148887     0.40740
H2145       H  0.98250312  0.79247385  0.59388641     0.40360
H2146       H  0.97130636  0.79565106  0.61643807     0.35250
C2147       C  0.80418859  0.88543242  0.58972426    -0.26480
C2148       C  0.81928458  0.90012598  0.58830207    -0.14550
C2149       C  0.81407665  0.92034075  0.59240433     0.36080
C2150       C  0.79419879  0.92514146  0.59755455    -0.25930
C2151       C  0.77954924  0.91031236  0.59946970    -0.15170
C2152       C  0.78452647  0.89018682  0.59538845     0.37160
N2153       N  0.77018834  0.87415424  0.59693998    -0.89420
H2154       H  0.80754614  0.86994115  0.58645766     0.18280
H2155       H  0.79022704  0.94053120  0.60080662     0.18270
N2156       N  0.82890520  0.93592536  0.59211110    -0.88450
H2157       H  0.76852465  0.86791310  0.58266033     0.35640
H2158       H  0.75603188  0.87926969  0.60117967     0.40740
H2159       H  0.83867310  0.93331591  0.60409691     0.40360
H2160       H  0.82236947  0.94990574  0.59472045     0.35250
C2161       C  0.51033709  0.91788243  0.54902295    -0.26480
C2162       C  0.50607082  0.92602036  0.53015823    -0.14550
C2163       C  0.48719239  0.93469440  0.52647157     0.36080
C2164       C  0.47296809  0.93537308  0.54197259    -0.25930
C2165       C  0.47729023  0.92771939  0.56113165    -0.15170
C2166       C  0.49613564  0.91858240  0.56459932     0.37160
N2167       N  0.50070970  0.90972406  0.58370027    -0.89420
H2168       H  0.52489547  0.91115113  0.55164253     0.18280
H2169       H  0.45854382  0.94226205  0.53913632     0.18270
N2170       N  0.48234913  0.94226153  0.50686026    -0.88450
H2171       H  0.51526178  0.90389215  0.58377194     0.35640
H2172       H  0.49099324  0.89760546  0.58571674     0.40740
H2173       H  0.49128229  0.95484502  0.50424411     0.40360
H2174       H  0.46747935  0.94720750  0.50638145     0.35250
C2175       C  0.15593424  0.58642835  0.54718014    -0.26480
C2176       C  0.14129104  0.58414140  0.56210867    -0.14550
C2177       C  0.12882629  0.56707123  0.56180167     0.36080
C2178       C  0.13108342  0.55292996  0.54656092    -0.25930
C2179       C  0.14565410  0.55513786  0.53148772    -0.15170
C2180       C  0.15838452  0.57222232  0.53187033     0.37160
N2181       N  0.17349010  0.57617912  0.51696989    -0.89420
H2182       H  0.16552215  0.59953451  0.54731242     0.18280
H2183       H  0.12119814  0.54004039  0.54645444     0.18270
N2184       N  0.11315397  0.56407428  0.57619323    -0.88450
H2185       H  0.16968755  0.58956772  0.50979684     0.35640
H2186       H  0.17393165  0.56532679  0.50582762     0.40740
H2187       H  0.10383707  0.57665314  0.57618595     0.40360
H2188       H  0.11953733  0.56242301  0.59038428     0.35250
C2189       C  0.48878277  0.58444950  0.88140854    -0.26480
C2190       C  0.47668367  0.58512495  0.89860143    -0.14550
C2191       C  0.47939550  0.57067001  0.91385983     0.36080
C2192       C  0.49403404  0.55587038  0.91139036    -0.25930
C2193       C  0.50618901  0.55505074  0.89417685    -0.15170
C2194       C  0.50333530  0.56942207  0.87885029     0.37160
N2195       N  0.51544803  0.56910249  0.86101241    -0.89420
H2196       H  0.48661754  0.59555877  0.86975859     0.18280
H2197       H  0.49598207  0.54492911  0.92323497     0.18270
N2198       N  0.46800391  0.57068880  0.93220164    -0.88450
H2199       H  0.51239092  0.58156665  0.85203540     0.35640
H2200       H  0.51108832  0.55662777  0.85262312     0.40740
H2201       H  0.45806529  0.58269735  0.93294467     0.40360
H2202       H  0.47809875  0.57269290  0.94403506     0.35250
C2203       C  0.12643398  0.56920937  0.92971480    -0.26480
C2204       C  0.12242761  0.58094903  0.91267873    -0.14550
C2205       C  0.10370196  0.59075534  0.91113560     0.36080
C2206       C  0.08952595  0.58854408  0.92656122    -0.25930
C2207       C  0.09357699  0.57693143  0.94360136    -0.15170
C2208       C  0.11231857  0.56707169  0.94520816     0.37160
N2209       N  0.11805077  0.55569250  0.96260055    -0.89420
H2210       H  0.14080009  0.56176151  0.93113581     0.18280
H2211       H  0.07523203  0.59619754  0.92542768     0.18270
N2212       N  0.09933755  0.60349782  0.89431915    -0.88450
H2213       H  0.11951390  0.54075124  0.95820263     0.35640
H2214       H  0.10721484  0.55616732  0.97386004     0.40740
H2215       H  0.10916400  0.61567731  0.89496939     0.40360
H2216       H  0.08483668  0.60935771  0.89539731     0.35250
C2217       C  0.28968223  0.60763123  0.88715039    -0.26480
C2218       C  0.27828395  0.62141112  0.87610569    -0.14550
C2219       C  0.28684948  0.64015941  0.87112396     0.36080
C2220       C  0.30678037  0.64415131  0.87636878    -0.25930
C2221       C  0.31845263  0.63024315  0.88703796    -0.15170
C2222       C  0.30959355  0.61185822  0.89282155     0.37160
N2223       N  0.32063881  0.59762563  0.90460945    -0.89420
H2224       H  0.28306583  0.59336935  0.89117901     0.18280
H2225       H  0.31312408  0.65841001  0.87198255     0.18270
N2226       N  0.27566930  0.65590573  0.86160414    -0.88450
H2227       H  0.31202364  0.58483550  0.90735020     0.35640
H2228       H  0.32344448  0.60417893  0.91856579     0.40740
H2229       H  0.26029919  0.65303904  0.86143493     0.40360
H2230       H  0.28063301  0.65704211  0.84677575     0.35250
C2231       C  0.14672304  0.63113750  0.75494269    -0.26480
C2232       C  0.16375267  0.61905899  0.75753979    -0.14550
C2233       C  0.17398388  0.61191044  0.74040862     0.36080
C2234       C  0.16729767  0.61731703  0.72128304    -0.25930
C2235       C  0.15065917  0.62990708  0.71866831    -0.15170
C2236       C  0.13996601  0.63662377  0.73576740     0.37160
N2237       N  0.12206671  0.64857104  0.73437520    -0.89420
H2238       H  0.13857637  0.63642331  0.76797435     0.18280
H2239       H  0.17540051  0.61185010  0.70829603     0.18270
N2240       N  0.19076370  0.59861120  0.74187277    -0.88450
H2241       H  0.11039851  0.64042385  0.74095791     0.35640
H2242       H  0.11775753  0.65091725  0.71953626     0.40740
H2243       H  0.18655647  0.58619997  0.75044850     0.40360
H2244       H  0.20255512  0.60599482  0.74901302     0.35250
C2245       C  0.10965754  0.93665469  0.59649802    -0.26480
C2246       C  0.12494358  0.93984131  0.58234790    -0.14550
C2247       C  0.12507658  0.95780526  0.57112448     0.36080
C2248       C  0.11005485  0.97198853  0.57421511    -0.25930
C2249       C  0.09482937  0.96889025  0.58838841    -0.15170
C2250       C  0.09457514  0.95102889  0.59968372     0.37160
N2251       N  0.07874934  0.94728372  0.61384839    -0.89420
H2252       H  0.10944616  0.92284937  0.60502598     0.18280
H2253       H  0.11025498  0.98559041  0.56534879     0.18270
N2254       N  0.13963362  0.96174009  0.55581677    -0.88450
H2255       H  0.08085177  0.93348268  0.62093502     0.35640
H2256       H  0.06533486  0.94617656  0.60579505     0.40740
H2257       H  0.13981042  0.94973627  0.54577124     0.40360
H2258       H  0.15373775  0.96324232  0.56240593     0.35250
C2259       C  0.28353003  0.90782506  0.60464672    -0.26480
C2260       C  0.28136862  0.89757073  0.58641681    -0.14550
C2261       C  0.29853709  0.89358883  0.57461469     0.36080
C2262       C  0.31742992  0.89950240  0.58165490    -0.25930
C2263       C  0.31969937  0.90936050  0.60013761    -0.15170
C2264       C  0.30247964  0.91382070  0.61163421     0.37160
N2265       N  0.30419897  0.92467491  0.63016299    -0.89420
H2266       H  0.27032184  0.91105054  0.61355831     0.18280
H2267       H  0.33049039  0.89615600  0.57259074     0.18270
N2268       N  0.29742969  0.88430335  0.55519092    -0.88450
H2269       H  0.29012263  0.92656655  0.63681468     0.35640
H2270       H  0.30951619  0.93899524  0.62674262     0.40740
H2271       H  0.28267534  0.88173091  0.55069344     0.40360
H2272       H  0.30449214  0.87037660  0.55619386     0.35250
C2273       C  0.14654329  0.77407943  0.58058565    -0.26480
C2274       C  0.16546100  0.78115095  0.58666491    -0.14550
C2275       C  0.17746665  0.76884027  0.59899465     0.36080
C2276       C  0.17040468  0.74998514  0.60496941    -0.25930
C2277       C  0.15153928  0.74296351  0.59891120    -0.15170
C2278       C  0.13935167  0.75525453  0.58660254     0.37160
N2279       N  0.11952470  0.74949774  0.58030862    -0.89420
H2280       H  0.13709860  0.78333823  0.57116560     0.18280
H2281       H  0.17981010  0.74071007  0.61443088     0.18270
N2282       N  0.19657326  0.77557668  0.60609017    -0.88450
H2283       H  0.10945797  0.75995749  0.58619322     0.35640
H2284       H  0.11528219  0.73571153  0.58626601     0.40740
H2285       H  0.20744000  0.76533007  0.60136770     0.40360
H2286       H  0.19629479  0.77548671  0.62176820     0.35250
C2287       C  0.44220677  0.93475827  0.92991587    -0.26480
C2288       C  0.45380367  0.93957822  0.91298541    -0.14550
C2289       C  0.46201463  0.95898152  0.91122233     0.36080
C2290       C  0.45854767  0.97299357  0.92646425    -0.25930
C2291       C  0.44728264  0.96806133  0.94351045    -0.15170
C2292       C  0.43887002  0.94868874  0.94525551     0.37160
N2293       N  0.42788373  0.94217572  0.96264480    -0.89420
H2294       H  0.43583063  0.91991597  0.93139954     0.18280
H2295       H  0.46510123  0.98780081  0.92528532     0.18270
N2296       N  0.47444251  0.96422267  0.89439679    -0.88450
H2297       H  0.41311361  0.93939227  0.95817406     0.35640
H2298       H  0.42733910  0.95308172  0.97379602     0.40740
H2299       H  0.48742092  0.95548044  0.89518220     0.40360
H2300       H  0.47908539  0.97914019  0.89533691     0.35250
C2301       C  0.43821555  0.77054311  0.85915821    -0.26480
C2302       C  0.45072620  0.78165186  0.87192696    -0.14550
C2303       C  0.45729777  0.77291111  0.89009882     0.36080
C2304       C  0.45076994  0.75354559  0.89524000    -0.25930
C2305       C  0.43794852  0.74267662  0.88261479    -0.15170
C2306       C  0.43189816  0.75118451  0.86411943     0.37160
N2307       N  0.42014789  0.74048351  0.84956204    -0.89420
H2308       H  0.43318320  0.77694262  0.84510538     0.18280
H2309       H  0.45562902  0.74689576  0.90925062     0.18270
N2310       N  0.47078124  0.78352716  0.90312587    -0.88450
H2311       H  0.40595887  0.74711301  0.84902567     0.35640
H2312       H  0.41823761  0.72546846  0.85331864     0.40740
H2313       H  0.48432390  0.78537503  0.89543481     0.40360
H2314       H  0.47400580  0.77505205  0.91591042     0.35250
C2315       C  0.43336498  0.91044942  0.75434022    -0.26480
C2316       C  0.45042633  0.89826338  0.75602243    -0.14550
C2317       C  0.46081708  0.89248452  0.73842310     0.36080
C2318       C  0.45333596  0.89841079  0.71967730    -0.25930
C2319       C  0.43594080  0.91014955  0.71797662    -0.15170
C2320       C  0.42600557  0.91639081  0.73563346     0.37160
N2321       N  0.40888189  0.92931876  0.73517163    -0.89420
H2322       H  0.42548091  0.91520489  0.76773713     0.18280
H2323       H  0.46126597  0.89377973  0.70626874     0.18270
N2324       N  0.47913876  0.88111345  0.73887899    -0.88450
H2325       H  0.39698459  0.92185205  0.72830924     0.35640
H2326       H  0.41246403  0.94208035  0.72683325     0.40740
H2327       H  0.48398453  0.87843231  0.75349274     0.40360
H2328       H  0.49032384  0.88986759  0.73223916     0.35250
C2329       C  0.15709538  0.44447804  0.55506542    -0.26480
C2330       C  0.13796751  0.43797730  0.56074815    -0.14550
C2331       C  0.12090131  0.44627790  0.55166358     0.36080
C2332       C  0.12327321  0.46115664  0.53699636    -0.25930
C2333       C  0.14242683  0.46793816  0.53114074    -0.15170
C2334       C  0.15959088  0.45943122  0.54040284     0.37160
N2335       N  0.17944666  0.46595606  0.53509658    -0.89420
H2336       H  0.17012279  0.43800015  0.56230366     0.18280
H2337       H  0.10998154  0.46746671  0.53013163     0.18270
N2338       N  0.10122056  0.43982803  0.55768046    -0.88450
H2339       H  0.19027773  0.45746393  0.54259351     0.35640
H2340       H  0.18108640  0.48062806  0.54028089     0.40740
H2341       H  0.09970433  0.42480447  0.55358780     0.40360
H2342       H  0.09017975  0.44770551  0.54982795     0.35250
C2343       C  0.51125269  0.12519417  0.55136912    -0.26480
C2344       C  0.50679268  0.12005516  0.53152771    -0.14550
C2345       C  0.48737207  0.11314730  0.52657331     0.36080
C2346       C  0.47323347  0.11053133  0.54185431    -0.25930
C2347       C  0.47781487  0.11487975  0.56196391    -0.15170
C2348       C  0.49695003  0.12275514  0.56661522     0.37160
N2349       N  0.50195106  0.12852585  0.58667159    -0.89420
H2350       H  0.52609891  0.13063786  0.55515318     0.18280
H2351       H  0.45864164  0.10461751  0.53788742     0.18270
N2352       N  0.48148693  0.10845642  0.50633549    -0.88450
H2353       H  0.50586855  0.14367481  0.58655283     0.35640
H2354       H  0.51454395  0.12032872  0.59113002     0.40740
H2355       H  0.49292802  0.11137419  0.49607206     0.40360
H2356       H  0.46969463  0.11803269  0.50249549     0.35250
C2357       C  0.47245853  0.45678385  0.88883913    -0.26480
C2358       C  0.47712399  0.43860099  0.89836528    -0.14550
C2359       C  0.49687819  0.43537396  0.90537069     0.36080
C2360       C  0.51140035  0.45032157  0.90262335    -0.25930
C2361       C  0.50667587  0.46845136  0.89321225    -0.15170
C2362       C  0.48692247  0.47178426  0.88621172     0.37160
N2363       N  0.48067352  0.49037925  0.87730990    -0.89420
H2364       H  0.45737694  0.45946921  0.88342634     0.18280
H2365       H  0.52647486  0.44799241  0.90823808     0.18270
N2366       N  0.50203553  0.41728016  0.91582849    -0.88450
H2367       H  0.47671433  0.48745833  0.86242532     0.35640
H2368       H  0.49218675  0.50093613  0.87697839     0.40740
H2369       H  0.49394086  0.41709067  0.92925858     0.40360
H2370       H  0.51722361  0.41723018  0.91974743     0.35250
C2371       C  0.46481911  0.08181091  0.92741382    -0.26480
C2372       C  0.44777450  0.08571778  0.91591752    -0.14550
C2373       C  0.43017535  0.07450306  0.91897533     0.36080
C2374       C  0.43002276  0.05935412  0.93363538    -0.25930
C2375       C  0.44726184  0.05503557  0.94503009    -0.15170
C2376       C  0.46497525  0.06638968  0.94166834     0.37160
N2377       N  0.48308100  0.06243279  0.95270980    -0.89420
H2378       H  0.47829865  0.09051612  0.92482010     0.18280
H2379       H  0.41643143  0.05079097  0.93602842     0.18270
N2380       N  0.41253419  0.07868158  0.90731053    -0.88450
H2381       H  0.49393352  0.07333770  0.94973223     0.35640
H2382       H  0.48899339  0.04900071  0.94726955     0.40740
H2383       H  0.40781753  0.09316652  0.91089006     0.40360
H2384       H  0.40084332  0.06906383  0.91136764     0.35250
C2385       C  0.42177678  0.27270088  0.87271490    -0.26480
C2386       C  0.43223016  0.28187788  0.88849664    -0.14550
C2387       C  0.44742316  0.27098859  0.89854436     0.36080
C2388       C  0.45208394  0.25154480  0.89229578    -0.25930
C2389       C  0.44208012  0.24265619  0.87607258    -0.15170
C2390       C  0.42645659  0.25319616  0.86644012     0.37160
N2391       N  0.41507109  0.24392191  0.85066568    -0.89420
H2392       H  0.40994633  0.28084786  0.86513616     0.18280
H2393       H  0.46383178  0.24340948  0.90002463     0.18270
N2394       N  0.45788031  0.27890146  0.91554875    -0.88450
H2395       H  0.40416799  0.25372622  0.84514907     0.35640
H2396       H  0.40737386  0.23179435  0.85691939     0.40740
H2397       H  0.44735837  0.28355645  0.92619452     0.40360
H2398       H  0.46644670  0.29115674  0.91102753     0.35250
C2399       C  0.45390521  0.11130496  0.75003664    -0.26480
C2400       C  0.44518857  0.12878743  0.75778835    -0.14550
C2401       C  0.43139682  0.13960324  0.74592993     0.36080
C2402       C  0.42672678  0.13270615  0.72660552    -0.25930
C2403       C  0.43533942  0.11516838  0.71889127    -0.15170
C2404       C  0.44915319  0.10429389  0.73080895     0.37160
N2405       N  0.45786245  0.08564721  0.72451227    -0.89420
H2406       H  0.46432171  0.10279715  0.75915013     0.18280
H2407       H  0.41618977  0.14105877  0.71748856     0.18270
N2408       N  0.42168491  0.15716526  0.75370768    -0.88450
H2409       H  0.47319259  0.08804791  0.72224377     0.35640
H2410       H  0.45183165  0.08051508  0.71104671     0.40740
H2411       H  0.41258105  0.15266651  0.76565897     0.40360
H2412       H  0.41214702  0.16344527  0.74296791     0.35250
C2413       C  0.10287798  0.08946956  0.58918409    -0.26480
C2414       C  0.12287404  0.08447881  0.59363341    -0.14550
C2415       C  0.12718897  0.06503492  0.60075988     0.36080
C2416       C  0.11172322  0.05086273  0.60239885    -0.25930
C2417       C  0.09199418  0.05574850  0.59712160    -0.15170
C2418       C  0.08738358  0.07546172  0.59098346     0.37160
N2419       N  0.06727788  0.08177855  0.58627919    -0.89420
H2420       H  0.09916995  0.10430929  0.58382524     0.18280
H2421       H  0.11527411  0.03576700  0.60718253     0.18270
N2422       N  0.14713784  0.05957798  0.60650608    -0.88450
H2423       H  0.06353322  0.09330366  0.59619839     0.35640
H2424       H  0.05681806  0.07044431  0.58883361     0.40740
H2425       H  0.15153223  0.04733295  0.59779397     0.40360
H2426       H  0.14682907  0.05502154  0.62150534     0.35250
C2427       C  0.17640546  0.25612040  0.60532286    -0.26480
C2428       C  0.16241417  0.24338921  0.59607053    -0.14550
C2429       C  0.14304248  0.25087188  0.59164491     0.36080
C2430       C  0.13802127  0.27056620  0.59717709    -0.25930
C2431       C  0.15191604  0.28301270  0.60682607    -0.15170
C2432       C  0.17152066  0.27580458  0.61058629     0.37160
N2433       N  0.18711607  0.28809672  0.61897481    -0.89420
H2434       H  0.19136290  0.25075920  0.60866285     0.18280
H2435       H  0.12312304  0.27624755  0.59402852     0.18270
N2436       N  0.12862411  0.23866288  0.58130009    -0.88450
H2437       H  0.19043426  0.28254462  0.63325246     0.35640
H2438       H  0.18271106  0.30296599  0.62063033     0.40740
H2439       H  0.13423738  0.23589487  0.56692491     0.40360
H2440       H  0.11510098  0.24635847  0.57941747     0.35250
C2441       C  0.28890191  0.13817847  0.60742769    -0.26480
C2442       C  0.28044014  0.12924398  0.59036521    -0.14550
C2443       C  0.29182345  0.11506179  0.57940356     0.36080
C2444       C  0.31114606  0.11005067  0.58601322    -0.25930
C2445       C  0.31950408  0.11883035  0.60321291    -0.15170
C2446       C  0.30830424  0.13320835  0.61394518     0.37160
N2447       N  0.31678305  0.14307020  0.63112694    -0.89420
H2448       H  0.28023791  0.14903751  0.61582696     0.18280
H2449       H  0.31976836  0.09922547  0.57752414     0.18270
N2450       N  0.28480566  0.10610215  0.56110176    -0.88450
H2451       H  0.30650114  0.15308955  0.63739184     0.35640
H2452       H  0.32893365  0.15162729  0.62613822     0.40740
H2453       H  0.27134095  0.11232888  0.55619900     0.40360
H2454       H  0.28225655  0.09092390  0.56392205     0.35250
C2455       C  0.10588581  0.43474737  0.91022654    -0.26480
C2456       C  0.12495135  0.44253205  0.91480446    -0.14550
C2457       C  0.12857472  0.45000832  0.93429375     0.36080
C2458       C  0.11327529  0.44947048  0.94871485    -0.25930
C2459       C  0.09444485  0.44145036  0.94412315    -0.15170
C2460       C  0.09058873  0.43413273  0.92471814     0.37160
N2461       N  0.07108988  0.42637037  0.91977696    -0.89420
H2462       H  0.10292955  0.42890750  0.89537314     0.18280
H2463       H  0.11616302  0.45523920  0.96363446     0.18270
N2464       N  0.14756097  0.45860366  0.93944463    -0.88450
H2465       H  0.07070851  0.42153637  0.90486962     0.35640
H2466       H  0.06087025  0.43818430  0.92087393     0.40740
H2467       H  0.15340856  0.45060753  0.95159388     0.40360
H2468       H  0.14514145  0.47334334  0.94409776     0.35250
C2469       C  0.31758412  0.41864974  0.87473194    -0.26480
C2470       C  0.31886275  0.40111081  0.88632578    -0.14550
C2471       C  0.30090347  0.39130844  0.89202086     0.36080
C2472       C  0.28241990  0.39898385  0.88578108    -0.25930
C2473       C  0.28123033  0.41615856  0.87376296    -0.15170
C2474       C  0.29905704  0.42637311  0.86845322     0.37160
N2475       N  0.29902932  0.44472167  0.85715055    -0.89420
H2476       H  0.33115071  0.42648370  0.87041833     0.18280
H2477       H  0.26879724  0.39126228  0.89015792     0.18270
N2478       N  0.30076541  0.37399188  0.90467437    -0.88450
H2479       H  0.30533485  0.45582455  0.86622642     0.35640
H2480       H  0.28452006  0.44952899  0.85387688     0.40740
H2481       H  0.30913472  0.37702545  0.91757706     0.40360
H2482       H  0.30714818  0.36201124  0.89696914     0.35250
C2483       C  0.17702240  0.41827938  0.74190172    -0.26480
C2484       C  0.16390114  0.41557053  0.75816010    -0.14550
C2485       C  0.14520947  0.40606046  0.75483060     0.36080
C2486       C  0.14012518  0.39969107  0.73536716    -0.25930
C2487       C  0.15327762  0.40248337  0.71922329    -0.15170
C2488       C  0.17203417  0.41184846  0.72254589     0.37160
N2489       N  0.18672173  0.41446491  0.70695531    -0.89420
H2490       H  0.19142072  0.42543843  0.74422248     0.18280
H2491       H  0.12582396  0.39242317  0.73275377     0.18270
N2492       N  0.13166228  0.40239494  0.77119307    -0.88450
H2493       H  0.18824919  0.42982121  0.70438035     0.35640
H2494       H  0.18232262  0.40793750  0.69345840     0.40740
H2495       H  0.13858733  0.39220093  0.78086456     0.40360
H2496       H  0.11851499  0.39553615  0.76610362     0.35250
C2497       C  0.60948322  0.12451837  0.56439576    -0.26480
C2498       C  0.62679820  0.11359909  0.55938850    -0.14550
C2499       C  0.62832001  0.10509100  0.54000529     0.36080
C2500       C  0.61258327  0.10743367  0.52641749    -0.25930
C2501       C  0.59530465  0.11821884  0.53147649    -0.15170
C2502       C  0.59364922  0.12688223  0.55076781     0.37160
N2503       N  0.57606045  0.13749804  0.55735399    -0.89420
H2504       H  0.60806907  0.13105566  0.57920133     0.18280
H2505       H  0.61380006  0.10059492  0.51171717     0.18270
N2506       N  0.64509758  0.09320194  0.53387721    -0.88450
H2507       H  0.56995325  0.12957121  0.56942553     0.35640
H2508       H  0.56495125  0.13787524  0.54636562     0.40740
H2509       H  0.64749755  0.08192572  0.54447603     0.40360
H2510       H  0.65775657  0.10231377  0.53286236     0.35250
C2511       C  0.94999589  0.43609784  0.54491212    -0.26480
C2512       C  0.95971326  0.44131448  0.56291029    -0.14550
C2513       C  0.96775989  0.46086693  0.56482876     0.36080
C2514       C  0.96607872  0.47433821  0.54894347    -0.25930
C2515       C  0.95638150  0.46912979  0.53108416    -0.15170
C2516       C  0.94831645  0.44965977  0.52891773     0.37160
N2517       N  0.93899577  0.44284849  0.51068662    -0.89420
H2518       H  0.94380455  0.42121590  0.54310296     0.18280
H2519       H  0.97252526  0.48912886  0.55058076     0.18270
N2520       N  0.97848455  0.46742065  0.58222928    -0.88450
H2521       H  0.94759322  0.43098902  0.50514856     0.35640
H2522       H  0.93914037  0.45380745  0.49955819     0.40740
H2523       H  0.98961124  0.45697879  0.58573963     0.40360
H2524       H  0.96847311  0.46897981  0.59413821     0.35250
C2525       C  0.61324838  0.47320750  0.88590350    -0.26480
C2526       C  0.59388379  0.46837380  0.89239638    -0.14550
C2527       C  0.58985904  0.44915319  0.90000332     0.36080
C2528       C  0.60552598  0.43520130  0.90148015    -0.25930
C2529       C  0.62519963  0.44010359  0.89563352    -0.15170
C2530       C  0.62899345  0.45927177  0.88735752     0.37160
N2531       N  0.64864230  0.46450456  0.88021012    -0.89420
H2532       H  0.61613825  0.48801936  0.87995032     0.18280
H2533       H  0.60237737  0.42056913  0.90770059     0.18270
N2534       N  0.56979998  0.44376938  0.90583923    -0.88450
H2535       H  0.64887907  0.47921349  0.87486097     0.35640
H2536       H  0.65183154  0.45527665  0.86796160     0.40740
H2537       H  0.56600500  0.45227970  0.91842360     0.40360
H2538       H  0.56919701  0.42878959  0.91033023     0.35250
C2539       C  0.97395054  0.45126974  0.93280508    -0.26480
C2540       C  0.97766993  0.44250567  0.91401353    -0.14550
C2541       C  0.99622930  0.43279068  0.91062272     0.36080
C2542       C  0.01075588  0.43258412  0.92588011    -0.25930
C2543       C  0.00716995  0.44186124  0.94434621    -0.15170
C2544       C  0.98855580  0.45112352  0.94799598     0.37160
N2545       N  0.98429384  0.45966320  0.96732669    -0.89420
H2546       H  0.95968518  0.45851375  0.93557484     0.18280
H2547       H  0.02498041  0.42515789  0.92336971     0.18270
N2548       N  0.00013339  0.42274544  0.89197002    -0.88450
H2549       H  0.96954282  0.46494453  0.96786850     0.35640
H2550       H  0.99354653  0.47215417  0.96914875     0.40740
H2551       H  0.99011186  0.41075602  0.89090118     0.40360
H2552       H  0.01455300  0.41659369  0.89188348     0.35250
C2553       C  0.92449839  0.41774063  0.74250267    -0.26480
C2554       C  0.93773249  0.41538869  0.75869823    -0.14550
C2555       C  0.95643879  0.40605497  0.75540178     0.36080
C2556       C  0.96150530  0.39931923  0.73612005    -0.25930
C2557       C  0.94829155  0.40177518  0.71997584    -0.15170
C2558       C  0.92942056  0.41098755  0.72323147     0.37160
N2559       N  0.91473677  0.41348399  0.70759991    -0.89420
H2560       H  0.91007617  0.42484873  0.74482050     0.18280
H2561       H  0.97592144  0.39220972  0.73372327     0.18270
N2562       N  0.97012119  0.40282052  0.77162941    -0.88450
H2563       H  0.90188930  0.40557832  0.71187382     0.35640
H2564       H  0.91935274  0.40712157  0.69410466     0.40740
H2565       H  0.98366308  0.40988087  0.76807486     0.40360
H2566       H  0.97283809  0.38745429  0.77274570     0.35250
C2567       C  0.81412484  0.39689210  0.86839620    -0.26480
C2568       C  0.82085028  0.41578627  0.87460715    -0.14550
C2569       C  0.80844419  0.42750776  0.88721380     0.36080
C2570       C  0.78998350  0.41977682  0.89362716    -0.25930
C2571       C  0.78320572  0.40081626  0.88749653    -0.15170
C2572       C  0.79542195  0.38931851  0.87452125     0.37160
N2573       N  0.78870249  0.37026294  0.86713943    -0.89420
H2574       H  0.82357822  0.38794404  0.85868381     0.18280
H2575       H  0.78072729  0.42889631  0.90335609     0.18270
N2576       N  0.81344737  0.44761522  0.89302719    -0.88450
H2577       H  0.79963786  0.36364959  0.85806398     0.35640
H2578       H  0.77626817  0.37286030  0.85794651     0.40740
H2579       H  0.82614738  0.45295971  0.88564460     0.40360
H2580       H  0.81651412  0.44753403  0.90840153     0.35250
C2581       C  0.97554118  0.06762937  0.57795623    -0.26480
C2582       C  0.97607779  0.08352407  0.59165898    -0.14550
C2583       C  0.99062822  0.08343111  0.60718632     0.36080
C2584       C  0.00493526  0.06807044  0.60779365    -0.25930
C2585       C  0.00493095  0.05274394  0.59344774    -0.15170
C2586       C  0.98976483  0.05221287  0.57870363     0.37160
N2587       N  0.98891470  0.03603346  0.56450716    -0.89420
H2588       H  0.96426040  0.06751279  0.56625238     0.18280
H2589       H  0.01634382  0.06830488  0.61937415     0.18270
N2590       N  0.99099950  0.09810027  0.62293762    -0.88450
H2591       H  0.97691986  0.03795440  0.55459057     0.35640
H2592       H  0.98602243  0.02289404  0.57252762     0.40740
H2593       H  0.97826489  0.10714418  0.62286003     0.40360
H2594       H  0.00351419  0.10724809  0.62064052     0.35250
C2595       C  0.96455303  0.26826777  0.61076179    -0.26480
C2596       C  0.95129139  0.28390331  0.60636713    -0.14550
C2597       C  0.93269373  0.27951881  0.59707149     0.36080
C2598       C  0.92808729  0.25962938  0.59220062    -0.25930
C2599       C  0.94130337  0.24385797  0.59665483    -0.15170
C2600       C  0.95978194  0.24836510  0.60603130     0.37160
N2601       N  0.97353532  0.23283129  0.61142753    -0.89420
H2602       H  0.97872654  0.27152196  0.61803817     0.18280
H2603       H  0.91386917  0.25652536  0.58498084     0.18270
N2604       N  0.91791986  0.29461163  0.59273108    -0.88450
H2605       H  0.97586879  0.23348008  0.62691925     0.35640
H2606       H  0.98721803  0.23572625  0.60432376     0.40740
H2607       H  0.92239836  0.30874774  0.59756545     0.40360
H2608       H  0.90502716  0.29113067  0.60095937     0.35250
C2609       C  0.81604492  0.13307997  0.61288703    -0.26480
C2610       C  0.82230008  0.12928229  0.59319283    -0.14550
C2611       C  0.80933047  0.11894398  0.57997867     0.36080
C2612       C  0.79046528  0.11276765  0.58689073    -0.25930
C2613       C  0.78395280  0.11681926  0.60654883    -0.15170
C2614       C  0.79712830  0.12687152  0.61977798     0.37160
N2615       N  0.79131431  0.13111626  0.64004507    -0.89420
H2616       H  0.82611178  0.14074276  0.62308765     0.18280
H2617       H  0.78069800  0.10489916  0.57658027     0.18270
N2618       N  0.81445084  0.11484124  0.55941496    -0.88450
H2619       H  0.79957394  0.14322590  0.64557039     0.35640
H2620       H  0.79548825  0.11873558  0.64867397     0.40740
H2621       H  0.82838217  0.12077750  0.55553808     0.40360
H2622       H  0.80396593  0.12218403  0.55036551     0.35250
C2623       C  0.66924028  0.08196620  0.92458045    -0.26480
C2624       C  0.65075496  0.08546727  0.91520566    -0.14550
C2625       C  0.63402164  0.07347962  0.92010833     0.36080
C2626       C  0.63625339  0.05825912  0.93426439    -0.25930
C2627       C  0.65469183  0.05463238  0.94386699    -0.15170
C2628       C  0.67151842  0.06648981  0.93871396     0.37160
N2629       N  0.69069560  0.06311016  0.94796542    -0.89420
H2630       H  0.68201732  0.09119007  0.92061015     0.18280
H2631       H  0.62322254  0.04923715  0.93784223     0.18270
N2632       N  0.61450975  0.07636478  0.91131656    -0.88450
H2633       H  0.70103825  0.07394848  0.94336728     0.35640
H2634       H  0.69612621  0.04945059  0.94260049     0.40740
H2635       H  0.61425458  0.08833078  0.90128682     0.40360
H2636       H  0.60461541  0.08013272  0.92288334     0.35250
C2637       C  0.64974383  0.25241596  0.89130912    -0.26480
C2638       C  0.66063279  0.24361307  0.87561625    -0.14550
C2639       C  0.67659020  0.25430060  0.86672887     0.36080
C2640       C  0.68093673  0.27378003  0.87337242    -0.25930
C2641       C  0.66971128  0.28281219  0.88870656    -0.15170
C2642       C  0.65399038  0.27186794  0.89783999     0.37160
N2643       N  0.64256522  0.27975259  0.91422265    -0.89420
H2644       H  0.63768108  0.24417287  0.89842889     0.18280
H2645       H  0.69312157  0.28201423  0.86646462     0.18270
N2646       N  0.68864135  0.24518138  0.85136708    -0.88450
H2647       H  0.63444317  0.29213509  0.90925463     0.35640
H2648       H  0.65245694  0.28426329  0.92551618     0.40740
H2649       H  0.69611743  0.23303677  0.85783842     0.40360
H2650       H  0.69972724  0.25507437  0.84638192     0.35250
C2651       C  0.64745536  0.13850131  0.74228624    -0.26480
C2652       C  0.65577231  0.12757263  0.75819375    -0.14550
C2653       C  0.66873159  0.11139215  0.75398574     0.36080
C2654       C  0.67294882  0.10647602  0.73395757    -0.25930
C2655       C  0.66470429  0.11743591  0.71803195    -0.15170
C2656       C  0.65181968  0.13378879  0.72228540     0.37160
N2657       N  0.64384955  0.14672830  0.70702212    -0.89420
H2658       H  0.63770789  0.15109247  0.74543400     0.18280
H2659       H  0.68292804  0.09408871  0.73072203     0.18270
N2660       N  0.67807772  0.10040001  0.76999469    -0.88450
H2661       H  0.62851162  0.14373693  0.70572876     0.35640
H2662       H  0.65047396  0.14435854  0.69307882     0.40740
H2663       H  0.68770515  0.11020940  0.77751640     0.40360
H2664       H  0.68704109  0.08888795  0.76430805     0.35250
loop_ 
_geom_bond_atom_site_label_1 
_geom_bond_atom_site_label_2 
_geom_bond_distance 
_geom_bond_site_symmetry_2 
_ccdc_geom_bond_type 
N1            N2   1.322       .  A
N1            C5   1.346       .  A
N1           Cu9   2.082       .  S
N2            C3   1.343       .  A
N2           Cu8   2.061       .  S
C3            C4   1.382       .  A
C3            H6   1.082       .  S
C4            C5   1.386       .  A
C4         C2652   1.480       .  S
C5            H7   1.082       .  S
Cu8          N11   2.060       .  S
Cu9          N19   2.082       .  S
Cu10         N12   2.068       .  S
Cu10         N18   2.069       .  S
N11          N12   1.322       .  A
N11          C15   1.343       .  A
N12          C13   1.345       .  A
C13          C14   1.380       .  A
C13          H16   1.082       .  S
C14          C15   1.379       .  A
C14        C2624   1.467       .  S
C15          H17   1.082       .  S
N18          N19   1.323       .  A
N18          C22   1.344       .  A
N19          C20   1.346       .  A
C20          C21   1.386       .  A
C20          H23   1.082       .  S
C21          C22   1.382       .  A
C21        C2638   1.480       .  S
C22          H24   1.082       .  S
N25          N26   1.322       .  A
N25          C29   1.345       .  A
N25         Cu33   2.080       .  S
N26          C27   1.344       .  A
N26         Cu32   2.064       .  S
C27          C28   1.381       .  A
C27          H30   1.082       .  S
C28          C29   1.384       .  A
C28        C2610   1.475       .  S
C29          H31   1.082       .  S
Cu32         N35   2.064       .  S
Cu33         N43   2.080       .  S
Cu34         N36   2.071       .  S
Cu34         N42   2.071       .  S
N35          N36   1.322       .  A
N35          C39   1.343       .  A
N36          C37   1.345       .  A
C37          C38   1.384       .  A
C37          H40   1.082       .  S
C38          C39   1.382       .  A
C38        C2582   1.477       .  S
C39          H41   1.082       .  S
N42          N43   1.321       .  A
N42          C46   1.344       .  A
N43          C44   1.345       .  A
C44          C45   1.389       .  A
C44          H47   1.082       .  S
C45          C46   1.388       .  A
C45        C2599   1.490       .  S
C46          H48   1.080       .  S
N49          N50   1.321       .  A
N49          C53   1.344       .  A
N49         Cu57   2.076       .  S
N50          C51   1.345       .  A
N50         Cu56   2.068       .  S
C51          C52   1.386       .  A
C51          H54   1.081       .  S
C52          C53   1.386       .  A
C52        C2554   1.484       .  S
C53          H55   1.082       .  S
Cu56         N59   2.068       .  S
Cu57         N67   2.077       .  S
Cu58         N60   2.074       .  S
Cu58         N66   2.073       .  S
N59          N60   1.321       .  A
N59          C63   1.343       .  A
N60          C61   1.345       .  A
C61          C62   1.386       .  A
C61          H64   1.082       .  S
C62          C63   1.386       .  A
C62        C2540   1.484       .  S
C63          H65   1.081       .  S
N66          N67   1.322       .  A
N66          C70   1.345       .  A
N67          C68   1.345       .  A
C68          C69   1.384       .  A
C68          H71   1.082       .  S
C69          C70   1.384       .  A
C69        C2568   1.480       .  S
C70          H72   1.082       .  S
N73          N74   1.322       .  A
N73          C77   1.346       .  A
N73         Cu81   2.081       .  S
N74          C75   1.343       .  A
N74         Cu80   2.072       .  S
C75          C76   1.386       .  A
C75          H78   1.082       .  S
C76          C77   1.390       .  A
C76        C2571   1.490       .  S
C77          H79   1.081       .  S
Cu80         N83   2.071       .  S
Cu81         N91   2.081       .  S
Cu82         N84   2.070       .  S
Cu82         N90   2.070       .  S
N83          N84   1.320       .  A
N83          C87   1.345       .  A
N84          C85   1.343       .  A
C85          C86   1.387       .  A
C85          H88   1.082       .  S
C86          C87   1.389       .  A
C86        C2529   1.489       .  S
C87          H89   1.081       .  S
N90          N91   1.322       .  A
N90          C94   1.344       .  A
N91          C92   1.345       .  A
C92          C93   1.386       .  A
C92          H95   1.082       .  S
C93          C94   1.384       .  A
C93        C2641   1.481       .  S
C94          H96   1.081       .  S
N97          N98   1.322       .  A
N97         C101   1.348       .  A
N97        Cu105   2.083       .  S
N98          C99   1.342       .  A
N98        Cu104   2.058       .  S
C99         C100   1.379       .  A
C99         H102   1.082       .  S
C100        C101   1.385       .  A
C100       C2557   1.473       .  S
C101        H103   1.082       .  S
Cu104       N107   2.058       .  S
Cu105       N115   2.084       .  S
Cu106       N108   2.075       .  S
Cu106       N114   2.076       .  S
N107        N108   1.319       .  A
N107        C111   1.341       .  A
N108        C109   1.345       .  A
C109        C110   1.390       .  A
C109        H112   1.082       .  S
C110        C111   1.386       .  A
C110       C2512   1.487       .  S
C111        H113   1.078       .  S
N114        N115   1.325       .  A
N114        C118   1.345       .  A
N115        C116   1.346       .  A
C116        C117   1.382       .  A
C116        H119   1.082       .  S
C117        C118   1.381       .  A
C117       C2596   1.475       .  S
C118        H120   1.082       .  S
N121        N122   1.320       .  A
N121        C125   1.345       .  A
N121       Cu129   2.075       .  S
N122        C123   1.342       .  A
N122       Cu128   2.065       .  S
C123        C124   1.387       .  A
C123        H126   1.082       .  S
C124        C125   1.391       .  A
C124       C2613   1.490       .  S
C125        H127   1.079       .  S
Cu128       N131   2.065       .  S
Cu129       N139   2.075       .  S
Cu130       N132   2.069       .  S
Cu130       N138   2.070       .  S
N131        N132   1.321       .  A
N131        C135   1.343       .  A
N132        C133   1.343       .  A
C133        C134   1.386       .  A
C133        H136   1.082       .  S
C134        C135   1.385       .  A
C134       C2498   1.481       .  S
C135        H137   1.079       .  S
N138        N139   1.323       .  A
N138        C142   1.345       .  A
N139        C140   1.344       .  A
C140        C141   1.382       .  A
C140        H143   1.082       .  S
C141        C142   1.383       .  A
C141       C2655   1.478       .  S
C142        H144   1.082       .  S
N145        N146   1.322       .  A
N145        C149   1.347       .  A
N145       Cu153   2.082       .  S
N146        C147   1.343       .  A
N146       Cu152   2.065       .  S
C147        C148   1.380       .  A
C147        H150   1.082       .  S
C148        C149   1.385       .  A
C148       C2473   1.475       .  S
C149        H151   1.082       .  S
Cu152       N155   2.065       .  S
Cu153       N163   2.083       .  S
Cu154       N156   2.073       .  S
Cu154       N162   2.073       .  S
N155        N156   1.320       .  A
N155        C159   1.343       .  A
N156        C157   1.344       .  A
C157        C158   1.388       .  A
C157        H160   1.082       .  S
C158        C159   1.386       .  A
C158       C2456   1.485       .  S
C159        H161   1.081       .  S
N162        N163   1.322       .  A
N162        C166   1.345       .  A
N163        C164   1.345       .  A
C164        C165   1.388       .  A
C164        H167   1.082       .  S
C165        C166   1.387       .  A
C165       C2484   1.488       .  S
C166        H168   1.081       .  S
N169        N170   1.320       .  A
N169        C173   1.345       .  A
N169       Cu177   2.080       .  S
N170        C171   1.344       .  A
N170       Cu176   2.066       .  S
C171        C172   1.387       .  A
C171        H174   1.081       .  S
C172        C173   1.390       .  A
C172       C2428   1.490       .  S
C173        H175   1.082       .  S
Cu176       N179   2.065       .  S
Cu177       N187   2.081       .  S
Cu178       N180   2.074       .  S
Cu178       N186   2.074       .  S
N179        N180   1.320       .  A
N179        C183   1.341       .  A
N180        C181   1.346       .  A
C181        C182   1.389       .  A
C181        H184   1.081       .  S
C182        C183   1.386       .  A
C182       C2414   1.486       .  S
C183        H185   1.082       .  S
N186        N187   1.323       .  A
N186        C190   1.345       .  A
N187        C188   1.345       .  A
C188        C189   1.384       .  A
C188        H191   1.082       .  S
C189        C190   1.384       .  A
C189       C2442   1.480       .  S
C190        H192   1.082       .  S
N193        N194   1.321       .  A
N193        C197   1.345       .  A
N193       Cu201   2.074       .  S
N194        C195   1.343       .  A
N194       Cu200   2.067       .  S
C195        C196   1.383       .  A
C195        H198   1.082       .  S
C196        C197   1.386       .  A
C196       C2400   1.481       .  S
C197        H199   1.082       .  S
Cu200       N203   2.067       .  S
Cu201       N211   2.075       .  S
Cu202       N204   2.070       .  S
Cu202       N210   2.070       .  S
N203        N204   1.322       .  A
N203        C207   1.345       .  A
N204        C205   1.344       .  A
C205        C206   1.381       .  A
C205        H208   1.082       .  S
C206        C207   1.380       .  A
C206       C2372   1.469       .  S
C207        H209   1.082       .  S
N210        N211   1.322       .  A
N210        C214   1.345       .  A
N211        C212   1.344       .  A
C212        C213   1.385       .  A
C212        H215   1.082       .  S
C213        C214   1.383       .  A
C213       C2389   1.480       .  S
C214        H216   1.082       .  S
N217        N218   1.322       .  A
N217        C221   1.345       .  A
N217       Cu225   2.078       .  S
N218        C219   1.344       .  A
N218       Cu224   2.074       .  S
C219        C220   1.386       .  A
C219        H222   1.082       .  S
C220        C221   1.387       .  A
C220       C2470   1.486       .  S
C221        H223   1.079       .  S
Cu224       N227   2.074       .  S
Cu225       N235   2.077       .  S
Cu226       N228   2.064       .  S
Cu226       N234   2.064       .  S
N227        N228   1.321       .  A
N227        C231   1.345       .  A
N228        C229   1.342       .  A
C229        C230   1.385       .  A
C229        H232   1.081       .  S
C230        C231   1.387       .  A
C230       C2358   1.484       .  S
C231        H233   1.082       .  S
N234        N235   1.321       .  A
N234        C238   1.344       .  A
N235        C236   1.345       .  A
C236        C237   1.387       .  A
C236        H239   1.082       .  S
C237        C238   1.384       .  A
C237       C2386   1.481       .  S
C238        H240   1.080       .  S
N241        N242   1.322       .  A
N241        C245   1.343       .  A
N241       Cu249   2.074       .  S
N242        C243   1.345       .  A
N242       Cu248   2.069       .  S
C243        C244   1.383       .  A
C243        H246   1.082       .  S
C244        C245   1.383       .  A
C244       C2403   1.477       .  S
C245        H247   1.082       .  S
Cu248       N251   2.068       .  S
Cu249       N259   2.074       .  S
Cu250       N252   2.070       .  S
Cu250       N258   2.070       .  S
N251        N252   1.321       .  A
N251        C255   1.344       .  A
N252        C253   1.343       .  A
C253        C254   1.387       .  A
C253        H256   1.082       .  S
C254        C255   1.388       .  A
C254       C2347   1.486       .  S
C255        H257   1.080       .  S
N258        N259   1.321       .  A
N258        C262   1.345       .  A
N259        C260   1.345       .  A
C260        C261   1.386       .  A
C260        H263   1.082       .  S
C261        C262   1.384       .  A
C261       C2445   1.482       .  S
C262        H264   1.082       .  S
N265        N266   1.323       .  A
N265        C269   1.347       .  A
N265       Cu273   2.082       .  S
N266        C267   1.344       .  A
N266       Cu272   2.068       .  S
C267        C268   1.381       .  A
C267        H270   1.082       .  S
C268        C269   1.383       .  A
C268       C2487   1.475       .  S
C269        H271   1.082       .  S
Cu272       N275   2.068       .  S
Cu273       N283   2.082       .  S
Cu274       N276   2.074       .  S
Cu274       N282   2.074       .  S
N275        N276   1.323       .  A
N275        C279   1.344       .  A
N276        C277   1.346       .  A
C277        C278   1.381       .  A
C277        H280   1.082       .  S
C278        C279   1.379       .  A
C278       C2330   1.469       .  S
C279        H281   1.082       .  S
N282        N283   1.323       .  A
N282        C286   1.346       .  A
N283        C284   1.346       .  A
C284        C285   1.384       .  A
C284        H287   1.082       .  S
C285        C286   1.381       .  A
C285       C2431   1.476       .  S
C286        H288   1.082       .  S
N289        N290   1.322       .  A
N289        C293   1.345       .  A
N289       Cu297   2.085       .  S
N290        C291   1.344       .  A
N290       Cu296   2.070       .  S
C291        C292   1.385       .  A
C291        H294   1.081       .  S
C292        C293   1.388       .  A
C292       C2302   1.487       .  S
C293        H295   1.082       .  S
Cu296       N299   2.069       .  S
Cu297       N307   2.084       .  S
Cu298       N300   2.061       .  S
Cu298       N306   2.061       .  S
N299        N300   1.320       .  A
N299        C303   1.344       .  A
N300        C301   1.342       .  A
C301        C302   1.384       .  A
C301        H304   1.081       .  S
C302        C303   1.386       .  A
C302       C2288   1.481       .  S
C303        H305   1.082       .  S
N306        N307   1.322       .  A
N306        C310   1.342       .  A
N307        C308   1.347       .  A
C308        C309   1.387       .  A
C308        H311   1.082       .  S
C309        C310   1.380       .  A
C309       C2316   1.477       .  S
C310        H312   1.082       .  S
N313        N314   1.323       .  A
N313        C317   1.346       .  A
N313       Cu321   2.085       .  S
N314        C315   1.344       .  A
N314       Cu320   2.077       .  S
C315        C316   1.386       .  A
C315        H318   1.082       .  S
C316        C317   1.389       .  A
C316       C2274   1.489       .  S
C317        H319   1.081       .  S
Cu320       N323   2.076       .  S
Cu321       N331   2.084       .  S
Cu322       N324   2.056       .  S
Cu322       N330   2.056       .  S
N323        N324   1.320       .  A
N323        C327   1.346       .  A
N324        C325   1.341       .  A
C325        C326   1.382       .  A
C325        H328   1.080       .  S
C326        C327   1.386       .  A
C326       C2246   1.478       .  S
C327        H329   1.082       .  S
N330        N331   1.322       .  A
N330        C334   1.342       .  A
N331        C332   1.347       .  A
C332        C333   1.386       .  A
C332        H335   1.082       .  S
C333        C334   1.379       .  A
C333       C2260   1.475       .  S
C334        H336   1.082       .  S
N337        N338   1.322       .  A
N337        C341   1.345       .  A
N337       Cu345   2.075       .  S
N338        C339   1.346       .  A
N338       Cu344   2.077       .  S
C339        C340   1.385       .  A
C339        H342   1.082       .  S
C340        C341   1.385       .  A
C340       C2232   1.481       .  S
C341        H343   1.081       .  S
Cu344       N347   2.077       .  S
Cu345       N355   2.075       .  S
Cu346       N348   2.082       .  S
Cu346       N354   2.082       .  S
N347        N348   1.322       .  A
N347        C351   1.345       .  A
N348        C349   1.346       .  A
C349        C350   1.387       .  A
C349        H352   1.082       .  S
C350        C351   1.387       .  A
C350       C2204   1.487       .  S
C351        H353   1.081       .  S
N354        N355   1.323       .  A
N354        C358   1.347       .  A
N355        C356   1.345       .  A
C356        C357   1.384       .  A
C356        H359   1.082       .  S
C357        C358   1.385       .  A
C357       C2218   1.481       .  S
C358        H360   1.082       .  S
N361        N362   1.323       .  A
N361        C365   1.346       .  A
N361       Cu369   2.081       .  S
N362        C363   1.345       .  A
N362       Cu368   2.071       .  S
C363        C364   1.381       .  A
C363        H366   1.082       .  S
C364        C365   1.385       .  A
C364       C2305   1.478       .  S
C365        H367   1.082       .  S
Cu368       N371   2.072       .  S
Cu369       N379   2.081       .  S
Cu370       N372   2.074       .  S
Cu370       N378   2.074       .  S
N371        N372   1.323       .  A
N371        C375   1.345       .  A
N372        C373   1.345       .  A
C373        C374   1.382       .  A
C373        H376   1.082       .  S
C374        C375   1.381       .  A
C374       C2190   1.474       .  S
C375        H377   1.082       .  S
N378        N379   1.321       .  A
N378        C382   1.345       .  A
N379        C380   1.345       .  A
C380        C381   1.390       .  A
C380        H383   1.081       .  S
C381        C382   1.389       .  A
C381       C2221   1.492       .  S
C382        H384   1.081       .  S
N385        N386   1.322       .  A
N385        C389   1.347       .  A
N385       Cu393   2.083       .  S
N386        C387   1.344       .  A
N386       Cu392   2.067       .  S
C387        C388   1.382       .  A
C387        H390   1.082       .  S
C388        C389   1.386       .  A
C388       C2235   1.479       .  S
C389        H391   1.082       .  S
Cu392       N395   2.067       .  S
Cu393       N403   2.083       .  S
Cu394       N396   2.077       .  S
Cu394       N402   2.077       .  S
N395        N396   1.322       .  A
N395        C399   1.344       .  A
N396        C397   1.345       .  A
C397        C398   1.385       .  A
C397        H400   1.082       .  S
C398        C399   1.383       .  A
C398       C2176   1.478       .  S
C399        H401   1.081       .  S
N402        N403   1.323       .  A
N402        C406   1.346       .  A
N403        C404   1.346       .  A
C404        C405   1.384       .  A
C404        H407   1.082       .  S
C405        C406   1.383       .  A
C405       C2277   1.479       .  S
C406        H408   1.082       .  S
N409        N410   1.321       .  A
N409        C413   1.345       .  A
N409       Cu417   2.077       .  S
N410        C411   1.343       .  A
N410       Cu416   2.066       .  S
C411        C412   1.385       .  A
C411        H414   1.082       .  S
C412        C413   1.388       .  A
C412       C2263   1.484       .  S
C413        H415   1.081       .  S
Cu416       N419   2.066       .  S
Cu417       N427   2.077       .  S
Cu418       N420   2.071       .  S
Cu418       N426   2.071       .  S
N419        N420   1.321       .  A
N419        C423   1.343       .  A
N420        C421   1.345       .  A
C421        C422   1.388       .  A
C421        H424   1.081       .  S
C422        C423   1.385       .  A
C422       C2165   1.485       .  S
C423        H425   1.082       .  S
N426        N427   1.322       .  A
N426        C430   1.344       .  A
N427        C428   1.345       .  A
C428        C429   1.386       .  A
C428        H431   1.080       .  S
C429        C430   1.384       .  A
C429       C2319   1.482       .  S
C430        H432   1.082       .  S
N433        N434   1.322       .  A
N433        C437   1.346       .  A
N433       Cu441   2.083       .  S
N434        C435   1.344       .  A
N434       Cu440   2.067       .  S
C435        C436   1.385       .  A
C435        H438   1.081       .  S
C436        C437   1.387       .  A
C436       C2134   1.485       .  S
C437        H439   1.082       .  S
Cu440       N443   2.066       .  S
Cu441       N451   2.083       .  S
Cu442       N444   2.066       .  S
Cu442       N450   2.065       .  S
N443        N444   1.321       .  A
N443        C447   1.344       .  A
N444        C445   1.344       .  A
C445        C446   1.382       .  A
C445        H448   1.082       .  S
C446        C447   1.381       .  A
C446       C2123   1.471       .  S
C447        H449   1.082       .  S
N450        N451   1.319       .  A
N450        C454   1.342       .  A
N451        C452   1.345       .  A
C452        C453   1.394       .  A
C452        H455   1.081       .  S
C453        C454   1.391       .  A
C453       C2148   1.499       .  S
C454        H456   1.078       .  S
N457        N458   1.322       .  A
N457        C461   1.346       .  A
N457       Cu465   2.081       .  S
N458        C459   1.343       .  A
N458       Cu464   2.064       .  S
C459        C460   1.383       .  A
C459        H462   1.082       .  S
C460        C461   1.386       .  A
C460       C2106   1.481       .  S
C461        H463   1.082       .  S
Cu464       N467   2.064       .  S
Cu465       N475   2.082       .  S
Cu466       N468   2.068       .  S
Cu466       N474   2.068       .  S
N467        N468   1.321       .  A
N467        C471   1.343       .  A
N468        C469   1.344       .  A
C469        C470   1.383       .  A
C469        H472   1.081       .  S
C470        C471   1.382       .  A
C470       C2078   1.474       .  S
C471        H473   1.082       .  S
N474        N475   1.323       .  A
N474        C478   1.345       .  A
N475        C476   1.346       .  A
C476        C477   1.383       .  A
C476        H479   1.082       .  S
C477        C478   1.380       .  A
C477       C2092   1.473       .  S
C478        H480   1.082       .  S
N481        N482   1.323       .  A
N481        C485   1.345       .  A
N481       Cu489   2.079       .  S
N482        C483   1.347       .  A
N482       Cu488   2.081       .  S
C483        C484   1.385       .  A
C483        H486   1.082       .  S
C484        C485   1.383       .  A
C484       C2050   1.479       .  S
C485        H487   1.082       .  S
Cu488       N491   2.082       .  S
Cu489       N499   2.079       .  S
Cu490       N492   2.076       .  S
Cu490       N498   2.076       .  S
N491        N492   1.323       .  A
N491        C495   1.347       .  A
N492        C493   1.345       .  A
C493        C494   1.384       .  A
C493        H496   1.081       .  S
C494        C495   1.385       .  A
C494       C2036   1.482       .  S
C495        H497   1.082       .  S
N498        N499   1.322       .  A
N498        C502   1.346       .  A
N499        C500   1.346       .  A
C500        C501   1.386       .  A
C500        H503   1.082       .  S
C501        C502   1.386       .  A
C501       C2064   1.484       .  S
C502        H504   1.082       .  S
N505        N506   1.322       .  A
N505        C509   1.346       .  A
N505       Cu513   2.082       .  S
N506        C507   1.345       .  A
N506       Cu512   2.077       .  S
C507        C508   1.386       .  A
C507        H510   1.082       .  S
C508        C509   1.389       .  A
C508       C2067   1.490       .  S
C509        H511   1.081       .  S
Cu512       N515   2.077       .  S
Cu513       N523   2.082       .  S
Cu514       N516   2.068       .  S
Cu514       N522   2.068       .  S
N515        N516   1.321       .  A
N515        C519   1.345       .  A
N516        C517   1.344       .  A
C517        C518   1.384       .  A
C517        H520   1.080       .  S
C518        C519   1.386       .  A
C518       C2025   1.481       .  S
C519        H521   1.082       .  S
N522        N523   1.323       .  A
N522        C526   1.344       .  A
N523        C524   1.346       .  A
C524        C525   1.383       .  A
C524        H527   1.082       .  S
C525        C526   1.381       .  A
C525       C2137   1.475       .  S
C526        H528   1.082       .  S
N529        N530   1.323       .  A
N529        C533   1.346       .  A
N529       Cu537   2.083       .  S
N530        C531   1.345       .  A
N530       Cu536   2.075       .  S
C531        C532   1.385       .  A
C531        H534   1.082       .  S
C532        C533   1.386       .  A
C532       C2053   1.484       .  S
C533        H535   1.082       .  S
Cu536       N539   2.074       .  S
Cu537       N547   2.083       .  S
Cu538       N540   2.063       .  S
Cu538       N546   2.063       .  S
N539        N540   1.321       .  A
N539        C543   1.345       .  A
N540        C541   1.343       .  A
C541        C542   1.385       .  A
C541        H544   1.081       .  S
C542        C543   1.387       .  A
C542       C2008   1.482       .  S
C543        H545   1.082       .  S
N546        N547   1.322       .  A
N546        C550   1.344       .  A
N547        C548   1.346       .  A
C548        C549   1.386       .  A
C548        H551   1.082       .  S
C549        C550   1.382       .  A
C549       C2109   1.479       .  S
C550        H552   1.081       .  S
N553        N554   1.323       .  A
N553        C557   1.345       .  A
N553       Cu561   2.075       .  S
N554        C555   1.345       .  A
N554       Cu560   2.068       .  S
C555        C556   1.380       .  A
C555        H558   1.082       .  S
C556        C557   1.381       .  A
C556       C2151   1.470       .  S
C557        H559   1.082       .  S
Cu560       N563   2.068       .  S
Cu561       N571   2.075       .  S
Cu562       N564   2.074       .  S
Cu562       N570   2.074       .  S
N563        N564   1.321       .  A
N563        C567   1.344       .  A
N564        C565   1.344       .  A
C565        C566   1.386       .  A
C565        H568   1.082       .  S
C566        C567   1.386       .  A
C566       C1994   1.483       .  S
C567        H569   1.079       .  S
N570        N571   1.318       .  A
N570        C574   1.343       .  A
N571        C572   1.343       .  A
C572        C573   1.396       .  A
C572        H575   1.076       .  S
C573        C574   1.395       .  A
C573       C2095   1.506       .  S
C574        H576   1.080       .  S
N577        N578   1.321       .  A
N577        C581   1.344       .  A
N577       Cu585   2.076       .  S
N578        C579   1.346       .  A
N578       Cu584   2.080       .  S
C579        C580   1.389       .  A
C579        H582   1.081       .  S
C580        C581   1.387       .  A
C580       C1983   1.489       .  S
C581        H583   1.082       .  S
Cu584       N587   2.080       .  S
Cu585       N595   2.076       .  S
Cu586       N588   2.076       .  S
Cu586       N594   2.075       .  S
N587        N588   1.322       .  A
N587        C591   1.345       .  A
N588        C589   1.345       .  A
C589        C590   1.387       .  A
C589        H592   1.079       .  S
C590        C591   1.388       .  A
C590       C1952   1.487       .  S
C591        H593   1.082       .  S
N594        N595   1.321       .  A
N594        C598   1.345       .  A
N595        C596   1.344       .  A
C596        C597   1.388       .  A
C596        H599   1.082       .  S
C597        C598   1.388       .  A
C597       C1969   1.489       .  S
C598        H600   1.081       .  S
N601        N602   1.321       .  A
N601        C605   1.345       .  A
N601       Cu609   2.082       .  S
N602        C603   1.344       .  A
N602       Cu608   2.065       .  S
C603        C604   1.385       .  A
C603        H606   1.081       .  S
C604        C605   1.389       .  A
C604       C1938   1.486       .  S
C605        H607   1.082       .  S
Cu608       N611   2.064       .  S
Cu609       N619   2.082       .  S
Cu610       N612   2.068       .  S
Cu610       N618   2.068       .  S
N611        N612   1.321       .  A
N611        C615   1.343       .  A
N612        C613   1.344       .  A
C613        C614   1.383       .  A
C613        H616   1.082       .  S
C614        C615   1.382       .  A
C614       C1913   1.476       .  S
C615        H617   1.082       .  S
N618        N619   1.322       .  A
N618        C622   1.343       .  A
N619        C620   1.346       .  A
C620        C621   1.388       .  A
C620        H623   1.079       .  S
C621        C622   1.384       .  A
C621       C1924   1.485       .  S
C622        H624   1.082       .  S
N625        N626   1.322       .  A
N625        C629   1.347       .  A
N625       Cu633   2.082       .  S
N626        C627   1.343       .  A
N626       Cu632   2.060       .  S
C627        C628   1.380       .  A
C627        H630   1.082       .  S
C628        C629   1.386       .  A
C628       C1896   1.477       .  S
C629        H631   1.082       .  S
Cu632       N635   2.060       .  S
Cu633       N643   2.082       .  S
Cu634       N636   2.073       .  S
Cu634       N642   2.074       .  S
N635        N636   1.320       .  A
N635        C639   1.342       .  A
N636        C637   1.345       .  A
C637        C638   1.386       .  A
C637        H640   1.082       .  S
C638        C639   1.383       .  A
C638       C1871   1.480       .  S
C639        H641   1.080       .  S
N642        N643   1.322       .  A
N642        C646   1.344       .  A
N643        C644   1.345       .  A
C644        C645   1.388       .  A
C644        H647   1.081       .  S
C645        C646   1.386       .  A
C645       C1882   1.488       .  S
C646        H648   1.082       .  S
N649        N650   1.323       .  A
N649        C653   1.347       .  A
N649       Cu657   2.081       .  S
N650        C651   1.344       .  A
N650       Cu656   2.070       .  S
C651        C652   1.381       .  A
C651        H654   1.082       .  S
C652        C653   1.383       .  A
C652       C1966   1.474       .  S
C653        H655   1.082       .  S
Cu656       N659   2.070       .  S
Cu657       N667   2.081       .  S
Cu658       N660   2.071       .  S
Cu658       N666   2.071       .  S
N659        N660   1.321       .  A
N659        C663   1.344       .  A
N660        C661   1.344       .  A
C661        C662   1.386       .  A
C661        H664   1.082       .  S
C662        C663   1.386       .  A
C662       C1857   1.484       .  S
C663        H665   1.081       .  S
N666        N667   1.322       .  A
N666        C670   1.344       .  A
N667        C668   1.345       .  A
C668        C669   1.388       .  A
C668        H671   1.082       .  S
C669        C670   1.386       .  A
C669       C1899   1.487       .  S
C670        H672   1.081       .  S
N673        N674   1.323       .  A
N673        C677   1.345       .  A
N673       Cu681   2.079       .  S
N674        C675   1.345       .  A
N674       Cu680   2.072       .  S
C675        C676   1.383       .  A
C675        H678   1.082       .  S
C676        C677   1.384       .  A
C676       C1885   1.478       .  S
C677        H679   1.082       .  S
Cu680       N683   2.072       .  S
Cu681       N691   2.079       .  S
Cu682       N684   2.067       .  S
Cu682       N690   2.067       .  S
N683        N684   1.321       .  A
N683        C687   1.345       .  A
N684        C685   1.343       .  A
C685        C686   1.384       .  A
C685        H688   1.082       .  S
C686        C687   1.385       .  A
C686       C1840   1.481       .  S
C687        H689   1.082       .  S
N690        N691   1.322       .  A
N690        C694   1.344       .  A
N691        C692   1.345       .  A
C692        C693   1.386       .  A
C692        H695   1.082       .  S
C693        C694   1.384       .  A
C693       C1927   1.481       .  S
C694        H696   1.082       .  S
N697        N698   1.321       .  A
N697        C701   1.345       .  A
N697       Cu705   2.077       .  S
N698        C699   1.345       .  A
N698       Cu704   2.071       .  S
C699        C700   1.384       .  A
C699        H702   1.082       .  S
C700        C701   1.387       .  A
C700       C1980   1.482       .  S
C701        H703   1.080       .  S
Cu704       N707   2.071       .  S
Cu705       N715   2.077       .  S
Cu706       N708   2.077       .  S
Cu706       N714   2.076       .  S
N707        N708   1.320       .  A
N707        C711   1.344       .  A
N708        C709   1.344       .  A
C709        C710   1.391       .  A
C709        H712   1.081       .  S
C710        C711   1.390       .  A
C710       C1826   1.494       .  S
C711        H713   1.080       .  S
N714        N715   1.323       .  A
N714        C718   1.346       .  A
N715        C716   1.345       .  A
C716        C717   1.384       .  A
C716        H719   1.082       .  S
C717        C718   1.383       .  A
C717       C1941   1.479       .  S
C718        H720   1.082       .  S
N721        N722   1.322       .  A
N721        C725   1.347       .  A
N721       Cu729   2.084       .  S
N722        C723   1.342       .  A
N722       Cu728   2.056       .  S
C723        C724   1.379       .  A
C723        H726   1.082       .  S
C724        C725   1.385       .  A
C724       C1812   1.474       .  S
C725        H727   1.082       .  S
Cu728       N731   2.057       .  S
Cu729       N739   2.085       .  S
Cu730       N732   2.072       .  S
Cu730       N738   2.073       .  S
N731        N732   1.320       .  A
N731        C735   1.341       .  A
N732        C733   1.345       .  A
C733        C734   1.386       .  A
C733        H736   1.082       .  S
C734        C735   1.382       .  A
C734       C1784   1.478       .  S
C735        H737   1.080       .  S
N738        N739   1.323       .  A
N738        C742   1.345       .  A
N739        C740   1.345       .  A
C740        C741   1.387       .  A
C740        H743   1.082       .  S
C741        C742   1.386       .  A
C741       C1801   1.487       .  S
C742        H744   1.081       .  S
N745        N746   1.322       .  A
N745        C749   1.345       .  A
N745       Cu753   2.081       .  S
N746        C747   1.345       .  A
N746       Cu752   2.071       .  S
C747        C748   1.382       .  A
C747        H750   1.082       .  S
C748        C749   1.386       .  A
C748       C1770   1.480       .  S
C749        H751   1.081       .  S
Cu752       N755   2.070       .  S
Cu753       N763   2.081       .  S
Cu754       N756   2.066       .  S
Cu754       N762   2.066       .  S
N755        N756   1.321       .  A
N755        C759   1.344       .  A
N756        C757   1.344       .  A
C757        C758   1.384       .  A
C757        H760   1.082       .  S
C758        C759   1.384       .  A
C758       C1742   1.479       .  S
C759        H761   1.082       .  S
N762        N763   1.321       .  A
N762        C766   1.343       .  A
N763        C764   1.345       .  A
C764        C765   1.388       .  A
C764        H767   1.082       .  S
C765        C766   1.386       .  A
C765       C1756   1.487       .  S
C766        H768   1.081       .  S
N769        N770   1.321       .  A
N769        C773   1.345       .  A
N769       Cu777   2.078       .  S
N770        C771   1.345       .  A
N770       Cu776   2.072       .  S
C771        C772   1.387       .  A
C771        H774   1.079       .  S
C772        C773   1.388       .  A
C772       C1728   1.488       .  S
C773        H775   1.082       .  S
Cu776       N779   2.072       .  S
Cu777       N787   2.078       .  S
Cu778       N780   2.080       .  S
Cu778       N786   2.080       .  S
N779        N780   1.322       .  A
N779        C783   1.343       .  A
N780        C781   1.347       .  A
C781        C782   1.387       .  A
C781        H784   1.081       .  S
C782        C783   1.384       .  A
C782       C1700   1.483       .  S
C783        H785   1.082       .  S
N786        N787   1.322       .  A
N786        C790   1.345       .  A
N787        C788   1.345       .  A
C788        C789   1.388       .  A
C788        H791   1.081       .  S
C789        C790   1.387       .  A
C789       C1714   1.489       .  S
C790        H792   1.082       .  S
N793        N794   1.322       .  A
N793        C797   1.345       .  A
N793       Cu801   2.076       .  S
N794        C795   1.345       .  A
N794       Cu800   2.071       .  S
C795        C796   1.384       .  A
C795        H798   1.082       .  S
C796        C797   1.386       .  A
C796       C1731   1.483       .  S
C797        H799   1.082       .  S
Cu800       N803   2.071       .  S
Cu801       N811   2.076       .  S
Cu802       N804   2.072       .  S
Cu802       N810   2.071       .  S
N803        N804   1.321       .  A
N803        C807   1.344       .  A
N804        C805   1.344       .  A
C805        C806   1.385       .  A
C805        H808   1.082       .  S
C806        C807   1.386       .  A
C806       C1686   1.484       .  S
C807        H809   1.081       .  S
N810        N811   1.321       .  A
N810        C814   1.345       .  A
N811        C812   1.344       .  A
C812        C813   1.387       .  A
C812        H815   1.082       .  S
C813        C814   1.387       .  A
C813       C1815   1.487       .  S
C814        H816   1.081       .  S
N817        N818   1.322       .  A
N817        C821   1.345       .  A
N817       Cu825   2.079       .  S
N818        C819   1.346       .  A
N818       Cu824   2.075       .  S
C819        C820   1.385       .  A
C819        H822   1.082       .  S
C820        C821   1.385       .  A
C820       C1717   1.483       .  S
C821        H823   1.082       .  S
Cu824       N827   2.074       .  S
Cu825       N835   2.079       .  S
Cu826       N828   2.072       .  S
Cu826       N834   2.072       .  S
N827        N828   1.323       .  A
N827        C831   1.345       .  A
N828        C829   1.345       .  A
C829        C830   1.381       .  A
C829        H832   1.082       .  S
C830        C831   1.382       .  A
C830       C1672   1.474       .  S
C831        H833   1.082       .  S
N834        N835   1.321       .  A
N834        C838   1.345       .  A
N835        C836   1.345       .  A
C836        C837   1.387       .  A
C836        H839   1.082       .  S
C837        C838   1.386       .  A
C837       C1773   1.486       .  S
C838        H840   1.082       .  S
N841        N842   1.323       .  A
N841        C845   1.346       .  A
N841       Cu849   2.081       .  S
N842        C843   1.345       .  A
N842       Cu848   2.071       .  S
C843        C844   1.382       .  A
C843        H846   1.082       .  S
C844        C845   1.385       .  A
C844       C1798   1.479       .  S
C845        H847   1.082       .  S
Cu848       N851   2.071       .  S
Cu849       N859   2.081       .  S
Cu850       N852   2.066       .  S
Cu850       N858   2.067       .  S
N851        N852   1.320       .  A
N851        C855   1.344       .  A
N852        C853   1.343       .  A
C853        C854   1.387       .  A
C853        H856   1.081       .  S
C854        C855   1.387       .  A
C854       C1658   1.485       .  S
C855        H857   1.082       .  S
N858        N859   1.323       .  A
N858        C862   1.344       .  A
N859        C860   1.346       .  A
C860        C861   1.383       .  A
C860        H863   1.082       .  S
C861        C862   1.380       .  A
C861       C1759   1.473       .  S
C862        H864   1.082       .  S
N865        N866   1.323       .  A
N865        C869   1.346       .  A
N865       Cu873   2.082       .  S
N866        C867   1.345       .  A
N866       Cu872   2.069       .  S
C867        C868   1.379       .  A
C867        H870   1.082       .  S
C868        C869   1.382       .  A
C868       C1630   1.471       .  S
C869        H871   1.082       .  S
Cu872       N875   2.069       .  S
Cu873       N883   2.082       .  S
Cu874       N876   2.066       .  S
Cu874       N882   2.066       .  S
N875        N876   1.321       .  A
N875        C879   1.344       .  A
N876        C877   1.343       .  A
C877        C878   1.384       .  A
C877        H880   1.082       .  S
C878        C879   1.386       .  A
C878       C1616   1.481       .  S
C879        H881   1.082       .  S
N882        N883   1.323       .  A
N882        C886   1.344       .  A
N883        C884   1.347       .  A
C884        C885   1.385       .  A
C884        H887   1.082       .  S
C885        C886   1.380       .  A
C885       C1644   1.475       .  S
C886        H888   1.082       .  S
N889        N890   1.323       .  A
N889        C893   1.346       .  A
N889       Cu897   2.081       .  S
N890        C891   1.343       .  A
N890       Cu896   2.064       .  S
C891        C892   1.380       .  A
C891        H894   1.082       .  S
C892        C893   1.383       .  A
C892       C1602   1.474       .  S
C893        H895   1.082       .  S
Cu896       N899   2.064       .  S
Cu897       N907   2.081       .  S
Cu898       N900   2.064       .  S
Cu898       N906   2.064       .  S
N899        N900   1.321       .  A
N899        C903   1.344       .  A
N900        C901   1.343       .  A
C901        C902   1.382       .  A
C901        H904   1.082       .  S
C902        C903   1.381       .  A
C902       C1574   1.471       .  S
C903        H905   1.082       .  S
N906        N907   1.323       .  A
N906        C910   1.344       .  A
N907        C908   1.346       .  A
C908        C909   1.383       .  A
C908        H911   1.082       .  S
C909        C910   1.379       .  A
C909       C1588   1.472       .  S
C910        H912   1.082       .  S
N913        N914   1.322       .  A
N913        C917   1.345       .  A
N913       Cu921   2.084       .  S
N914        C915   1.344       .  A
N914       Cu920   2.071       .  S
C915        C916   1.384       .  A
C915        H918   1.080       .  S
C916        C917   1.387       .  A
C916       C1560   1.483       .  S
C917        H919   1.082       .  S
Cu920       N923   2.070       .  S
Cu921       N931   2.083       .  S
Cu922       N924   2.061       .  S
Cu922       N930   2.061       .  S
N923        N924   1.321       .  A
N923        C927   1.344       .  A
N924        C925   1.344       .  A
C925        C926   1.379       .  A
C925        H928   1.082       .  S
C926        C927   1.381       .  A
C926       C1532   1.467       .  S
C927        H929   1.082       .  S
N930        N931   1.321       .  A
N930        C934   1.341       .  A
N931        C932   1.347       .  A
C932        C933   1.389       .  A
C932        H935   1.082       .  S
C933        C934   1.383       .  A
C933       C1549   1.483       .  S
C934        H936   1.082       .  S
N937        N938   1.321       .  A
N937        C941   1.346       .  A
N937       Cu945   2.077       .  S
N938        C939   1.344       .  A
N938       Cu944   2.068       .  S
C939        C940   1.385       .  A
C939        H942   1.082       .  S
C940        C941   1.387       .  A
C940       C1647   1.483       .  S
C941        H943   1.082       .  S
Cu944       N947   2.068       .  S
Cu945       N955   2.078       .  S
Cu946       N948   2.074       .  S
Cu946       N954   2.074       .  S
N947        N948   1.322       .  A
N947        C951   1.344       .  A
N948        C949   1.345       .  A
C949        C950   1.383       .  A
C949        H952   1.082       .  S
C950        C951   1.382       .  A
C950       C1521   1.476       .  S
C951        H953   1.082       .  S
N954        N955   1.322       .  A
N954        C958   1.345       .  A
N955        C956   1.345       .  A
C956        C957   1.386       .  A
C956        H959   1.082       .  S
C957        C958   1.384       .  A
C957       C1563   1.482       .  S
C958        H960   1.082       .  S
N961        N962   1.321       .  A
N961        C965   1.343       .  A
N961       Cu969   2.075       .  S
N962        C963   1.344       .  A
N962       Cu968   2.067       .  S
C963        C964   1.387       .  A
C963        H966   1.080       .  S
C964        C965   1.388       .  A
C964       C1605   1.487       .  S
C965        H967   1.082       .  S
Cu968       N971   2.067       .  S
Cu969       N979   2.074       .  S
Cu970       N972   2.066       .  S
Cu970       N978   2.067       .  S
N971        N972   1.322       .  A
N971        C975   1.344       .  A
N972        C973   1.343       .  A
C973        C974   1.381       .  A
C973        H976   1.082       .  S
C974        C975   1.382       .  A
C974       C1504   1.472       .  S
C975        H977   1.082       .  S
N978        N979   1.322       .  A
N978        C982   1.344       .  A
N979        C980   1.345       .  A
C980        C981   1.384       .  A
C980        H983   1.082       .  S
C981        C982   1.382       .  A
C981       C1546   1.477       .  S
C982        H984   1.082       .  S
N985        N986   1.321       .  A
N985        C989   1.344       .  A
N985       Cu993   2.077       .  S
N986        C987   1.344       .  A
N986       Cu992   2.075       .  S
C987        C988   1.390       .  A
C987        H990   1.081       .  S
C988        C989   1.390       .  A
C988       C1633   1.493       .  S
C989        H991   1.080       .  S
Cu992       N995   2.075       .  S
Cu993      N1003   2.077       .  S
Cu994       N996   2.066       .  S
Cu994      N1002   2.065       .  S
N995        N996   1.321       .  A
N995        C999   1.345       .  A
N996        C997   1.343       .  A
C997        C998   1.384       .  A
C997       H1000   1.080       .  S
C998        C999   1.386       .  A
C998       C1490   1.481       .  S
C999       H1001   1.082       .  S
N1002      N1003   1.320       .  A
N1002      C1006   1.344       .  A
N1003      C1004   1.344       .  A
C1004      C1005   1.389       .  A
C1004      H1007   1.082       .  S
C1005      C1006   1.387       .  A
C1005      C1591   1.488       .  S
C1006      H1008   1.081       .  S
N1009      N1010   1.322       .  A
N1009      C1013   1.346       .  A
N1009     Cu1017   2.078       .  S
N1010      C1011   1.344       .  A
N1010     Cu1016   2.069       .  S
C1011      C1012   1.383       .  A
C1011      H1014   1.082       .  S
C1012      C1013   1.385       .  A
C1012      C1476   1.480       .  S
C1013      H1015   1.082       .  S
Cu1016     N1019   2.069       .  S
Cu1017     N1027   2.078       .  S
Cu1018     N1020   2.072       .  S
Cu1018     N1026   2.072       .  S
N1019      N1020   1.320       .  A
N1019      C1023   1.344       .  A
N1020      C1021   1.344       .  A
C1021      C1022   1.387       .  A
C1021      H1024   1.082       .  S
C1022      C1023   1.388       .  A
C1022      C1451   1.487       .  S
C1023      H1025   1.081       .  S
N1026      N1027   1.322       .  A
N1026      C1030   1.345       .  A
N1027      C1028   1.345       .  A
C1028      C1029   1.386       .  A
C1028      H1031   1.082       .  S
C1029      C1030   1.384       .  A
C1029      C1462   1.482       .  S
C1030      H1032   1.082       .  S
N1033      N1034   1.323       .  A
N1033      C1037   1.347       .  A
N1033     Cu1041   2.082       .  S
N1034      C1035   1.344       .  A
N1034     Cu1040   2.065       .  S
C1035      C1036   1.380       .  A
C1035      H1038   1.082       .  S
C1036      C1037   1.383       .  A
C1036      C1423   1.474       .  S
C1037      H1039   1.082       .  S
Cu1040     N1043   2.064       .  S
Cu1041     N1051   2.082       .  S
Cu1042     N1044   2.063       .  S
Cu1042     N1050   2.064       .  S
N1043      N1044   1.321       .  A
N1043      C1047   1.343       .  A
N1044      C1045   1.344       .  A
C1045      C1046   1.381       .  A
C1045      H1048   1.082       .  S
C1046      C1047   1.382       .  A
C1046      C1406   1.471       .  S
C1047      H1049   1.082       .  S
N1050      N1051   1.322       .  A
N1050      C1054   1.342       .  A
N1051      C1052   1.346       .  A
C1052      C1053   1.388       .  A
C1052      H1055   1.081       .  S
C1053      C1054   1.383       .  A
C1053      C1434   1.483       .  S
C1054      H1056   1.082       .  S
N1057      N1058   1.321       .  A
N1057      C1061   1.345       .  A
N1057     Cu1065   2.080       .  S
N1058      C1059   1.344       .  A
N1058     Cu1064   2.073       .  S
C1059      C1060   1.388       .  A
C1059      H1062   1.082       .  S
C1060      C1061   1.390       .  A
C1060      C1392   1.492       .  S
C1061      H1063   1.080       .  S
Cu1064     N1067   2.073       .  S
Cu1065     N1075   2.080       .  S
Cu1066     N1068   2.068       .  S
Cu1066     N1074   2.068       .  S
N1067      N1068   1.321       .  A
N1067      C1071   1.345       .  A
N1068      C1069   1.343       .  A
C1069      C1070   1.384       .  A
C1069      H1072   1.082       .  S
C1070      C1071   1.386       .  A
C1070      C1364   1.481       .  S
C1071      H1073   1.080       .  S
N1074      N1075   1.321       .  A
N1074      C1078   1.343       .  A
N1075      C1076   1.346       .  A
C1076      C1077   1.388       .  A
C1076      H1079   1.080       .  S
C1077      C1078   1.385       .  A
C1077      C1378   1.485       .  S
C1078      H1080   1.082       .  S
N1081      N1082   1.322       .  A
N1081      C1085   1.346       .  A
N1081     Cu1089   2.079       .  S
N1082      C1083   1.343       .  A
N1082     Cu1088   2.061       .  S
C1083      C1084   1.381       .  A
C1083      H1086   1.082       .  S
C1084      C1085   1.386       .  A
C1084      C1437   1.477       .  S
C1085      H1087   1.082       .  S
Cu1088     N1091   2.061       .  S
Cu1089     N1099   2.079       .  S
Cu1090     N1092   2.069       .  S
Cu1090     N1098   2.070       .  S
N1091      N1092   1.321       .  A
N1091      C1095   1.343       .  A
N1092      C1093   1.344       .  A
C1093      C1094   1.384       .  A
C1093      H1096   1.082       .  S
C1094      C1095   1.383       .  A
C1094      C1353   1.475       .  S
C1095      H1097   1.081       .  S
N1098      N1099   1.323       .  A
N1098      C1102   1.344       .  A
N1099      C1100   1.345       .  A
C1100      C1101   1.385       .  A
C1100      H1103   1.082       .  S
C1101      C1102   1.383       .  A
C1101      C1381   1.480       .  S
C1102      H1104   1.082       .  S
N1105      N1106   1.320       .  A
N1105      C1109   1.346       .  A
N1105     Cu1113   2.078       .  S
N1106      C1107   1.343       .  A
N1106     Cu1112   2.064       .  S
C1107      C1108   1.384       .  A
C1107      H1110   1.082       .  S
C1108      C1109   1.389       .  A
C1108      C1465   1.484       .  S
C1109      H1111   1.080       .  S
Cu1112     N1115   2.064       .  S
Cu1113     N1123   2.079       .  S
Cu1114     N1116   2.081       .  S
Cu1114     N1122   2.081       .  S
N1115      N1116   1.321       .  A
N1115      C1119   1.342       .  A
N1116      C1117   1.346       .  A
C1117      C1118   1.388       .  A
C1117      H1120   1.082       .  S
C1118      C1119   1.384       .  A
C1118      C1336   1.483       .  S
C1119      H1121   1.080       .  S
N1122      N1123   1.324       .  A
N1122      C1126   1.347       .  A
N1123      C1124   1.345       .  A
C1124      C1125   1.382       .  A
C1124      H1127   1.082       .  S
C1125      C1126   1.384       .  A
C1125      C1395   1.478       .  S
C1126      H1128   1.082       .  S
N1129      N1130   1.322       .  A
N1129      C1133   1.347       .  A
N1129     Cu1137   2.081       .  S
N1130      C1131   1.343       .  A
N1130     Cu1136   2.063       .  S
C1131      C1132   1.381       .  A
C1131      H1134   1.082       .  S
C1132      C1133   1.387       .  A
C1132      C1479   1.478       .  S
C1133      H1135   1.082       .  S
Cu1136     N1139   2.063       .  S
Cu1137     N1147   2.082       .  S
Cu1138     N1140   2.071       .  S
Cu1138     N1146   2.072       .  S
N1139      N1140   1.320       .  A
N1139      C1143   1.341       .  A
N1140      C1141   1.345       .  A
C1141      C1142   1.389       .  A
C1141      H1144   1.081       .  S
C1142      C1143   1.385       .  A
C1142      C1322   1.486       .  S
C1143      H1145   1.082       .  S
N1146      N1147   1.323       .  A
N1146      C1150   1.344       .  A
N1147      C1148   1.345       .  A
C1148      C1149   1.387       .  A
C1148      H1151   1.082       .  S
C1149      C1150   1.386       .  A
C1149      C1420   1.486       .  S
C1150      H1152   1.081       .  S
O1153     Cu1161   1.999       .  S
O1153      C1163   1.276       .  A
O1154     Cu1161   1.997       .  S
O1154      C1164   1.276       .  A
O1155     Cu1161   1.991       .  S
O1155      C1165   1.275       .  A
O1156     Cu1161   2.001       .  S
O1156      C1166   1.277       .  A
O1157     Cu1162   2.013       .  S
O1157      C1166   1.278       .  A
O1158     Cu1162   2.019       .  S
O1158      C1165   1.278       .  A
O1159     Cu1162   2.016       .  S
O1159      C1164   1.279       .  A
O1160     Cu1162   2.017       .  S
O1160      C1163   1.278       .  A
Cu1161    Cu1162   2.376       .  S
C1163      C1854   1.471       .  S
C1164      C1518   1.479       .  S
C1165      C1325   1.467       .  S
C1166      C1689   1.471       .  S
O1167     Cu1175   2.015       .  S
O1167      C1177   1.278       .  A
O1168     Cu1175   2.024       .  S
O1168      C1178   1.279       .  A
O1169     Cu1175   2.019       .  S
O1169      C1179   1.278       .  A
O1170     Cu1175   2.018       .  S
O1170      C1180   1.278       .  A
O1171     Cu1176   1.997       .  S
O1171      C1180   1.276       .  A
O1172     Cu1176   1.999       .  S
O1172      C1179   1.277       .  A
O1173     Cu1176   1.995       .  S
O1173      C1178   1.275       .  A
O1174     Cu1176   2.001       .  S
O1174      C1177   1.278       .  A
Cu1175    Cu1176   2.373       .  S
C1177      C2333   1.492       .  S
C1178      C1829   1.469       .  S
C1179      C2179   1.481       .  S
C1180      C1339   1.472       .  S
O1181     Cu1189   1.992       .  S
O1181      C1191   1.275       .  A
O1182     Cu1189   1.991       .  S
O1182      C1192   1.276       .  A
O1183     Cu1189   1.992       .  S
O1183      C1193   1.276       .  A
O1184     Cu1189   1.986       .  S
O1184      C1194   1.275       .  A
O1185     Cu1190   2.017       .  S
O1185      C1194   1.279       .  A
O1186     Cu1190   2.011       .  S
O1186      C1193   1.278       .  A
O1187     Cu1190   2.015       .  S
O1187      C1192   1.279       .  A
O1188     Cu1190   2.013       .  S
O1188      C1191   1.277       .  A
Cu1189    Cu1190   2.377       .  S
C1191      C2344   1.465       .  S
C1192      C1507   1.476       .  S
C1193      C2501   1.468       .  S
C1194      C1350   1.473       .  S
O1195     Cu1203   2.000       .  S
O1195      C1205   1.278       .  A
O1196     Cu1203   1.993       .  S
O1196      C1206   1.276       .  A
O1197     Cu1203   1.996       .  S
O1197      C1207   1.276       .  A
O1198     Cu1203   1.997       .  S
O1198      C1208   1.276       .  A
O1199     Cu1204   2.021       .  S
O1199      C1208   1.280       .  A
O1200     Cu1204   2.018       .  S
O1200      C1207   1.279       .  A
O1201     Cu1204   2.018       .  S
O1201      C1206   1.279       .  A
O1202     Cu1204   2.014       .  S
O1202      C1205   1.279       .  A
Cu1203    Cu1204   2.373       .  S
C1205      C1675   1.485       .  S
C1206      C2515   1.471       .  S
C1207      C1493   1.476       .  S
C1208      C2022   1.478       .  S
O1209     Cu1217   2.016       .  S
O1209      C1219   1.278       .  A
O1210     Cu1217   2.008       .  S
O1210      C1220   1.277       .  A
O1211     Cu1217   2.007       .  S
O1211      C1221   1.277       .  A
O1212     Cu1217   2.017       .  S
O1212      C1222   1.279       .  A
O1213     Cu1218   1.994       .  S
O1213      C1222   1.276       .  A
O1214     Cu1218   2.003       .  S
O1214      C1221   1.277       .  A
O1215     Cu1218   2.003       .  S
O1215      C1220   1.277       .  A
O1216     Cu1218   1.994       .  S
O1216      C1219   1.275       .  A
Cu1217    Cu1218   2.378       .  S
C1219      C2162   1.468       .  S
C1220      C1661   1.469       .  S
C1221      C1997   1.471       .  S
C1222      C1843   1.471       .  S
O1223     Cu1231   2.018       .  S
O1223      C1233   1.278       .  A
O1224     Cu1231   2.016       .  S
O1224      C1234   1.278       .  A
O1225     Cu1231   2.013       .  S
O1225      C1235   1.278       .  A
O1226     Cu1231   2.019       .  S
O1226      C1236   1.279       .  A
O1227     Cu1232   1.990       .  S
O1227      C1236   1.275       .  A
O1228     Cu1232   1.996       .  S
O1228      C1235   1.276       .  A
O1229     Cu1232   1.999       .  S
O1229      C1234   1.278       .  A
O1230     Cu1232   1.998       .  S
O1230      C1233   1.276       .  A
Cu1231    Cu1232   2.376       .  S
C1233      C2526   1.469       .  S
C1234      C2193   1.485       .  S
C1235      C2011   1.472       .  S
C1236      C2361   1.469       .  S
O1237     Cu1245   1.989       .  S
O1237      C1247   1.276       .  A
O1238     Cu1245   1.992   1_565  S
O1238      C1248   1.275       .  A
O1239     Cu1245   1.979   1_565  S
O1239      C1249   1.275       .  A
O1240     Cu1245   1.988       .  S
O1240      C1250   1.276       .  A
O1241     Cu1246   2.017       .  S
O1241      C1250   1.279       .  A
O1242     Cu1246   2.024   1_565  S
O1242      C1249   1.280       .  A
O1243     Cu1246   2.018   1_565  S
O1243      C1248   1.279       .  A
O1244     Cu1246   2.020       .  S
O1244      C1247   1.279       .  A
Cu1245    Cu1246   2.374       .  S
C1247      C1367   1.473       .  S
C1248      C1745   1.473       .  S
C1249      C1910   1.475       .  S
C1250      C1577   1.480       .  S
O1251     Cu1259   2.017   1_565  S
O1251      C1261   1.279       .  A
O1252     Cu1259   2.018       .  S
O1252      C1262   1.278       .  A
O1253     Cu1259   2.020       .  S
O1253      C1263   1.279       .  A
O1254     Cu1259   2.017   1_565  S
O1254      C1264   1.279       .  A
O1255     Cu1260   1.989   1_565  S
O1255      C1264   1.276       .  A
O1256     Cu1260   1.988       .  S
O1256      C1263   1.275       .  A
O1257     Cu1260   1.991       .  S
O1257      C1262   1.275       .  A
O1258     Cu1260   1.991   1_565  S
O1258      C1261   1.276       .  A
Cu1259    Cu1260   2.374       .  S
C1261      C2120   1.478       .  S
C1262      C2417   1.466       .  S
C1263      C2585   1.474       .  S
C1264      C2249   1.475       .  S
O1265     Cu1273   2.017   1_565  S
O1265      C1275   1.279       .  A
O1266     Cu1273   2.014   1_554  S
O1266      C1276   1.278       .  A
O1267     Cu1273   2.029       .  S
O1267      C1277   1.281       .  A
O1268     Cu1273   2.025   1_564  S
O1268      C1278   1.280       .  A
O1269     Cu1274   1.983   1_564  S
O1269      C1278   1.275       .  A
O1270     Cu1274   1.980       .  S
O1270      C1277   1.273       .  A
O1271     Cu1274   1.990   1_554  S
O1271      C1276   1.276       .  A
O1272     Cu1274   1.986   1_565  S
O1272      C1275   1.275       .  A
Cu1273    Cu1274   2.372       .  S
C1275      C2291   1.469       .  S
C1276      C1409   1.479       .  S
C1277      C2375   1.488       .  S
C1278      C1868   1.473       .  S
O1279     Cu1287   2.004       .  S
O1279      C1289   1.277       .  A
O1280     Cu1287   2.012   1_554  S
O1280      C1290   1.278       .  A
O1281     Cu1287   2.014   1_554  S
O1281      C1291   1.279       .  A
O1282     Cu1287   2.006       .  S
O1282      C1292   1.277       .  A
O1283     Cu1288   2.006       .  S
O1283      C1292   1.277       .  A
O1284     Cu1288   1.995   1_554  S
O1284      C1291   1.276       .  A
O1285     Cu1288   2.001   1_554  S
O1285      C1290   1.276       .  A
O1286     Cu1288   2.008       .  S
O1286      C1289   1.277       .  A
Cu1287    Cu1288   2.378       .  S
C1289      C2543   1.470       .  S
C1290      C1448   1.469       .  S
C1291      C1619   1.473       .  S
C1292      C2459   1.468       .  S
O1293     Cu1301   1.984   1_565  S
O1293      C1303   1.276       .  A
O1294     Cu1301   1.990   1_554  S
O1294      C1304   1.277       .  A
O1295     Cu1301   1.982       .  S
O1295      C1305   1.276       .  A
O1296     Cu1301   1.984   1_564  S
O1296      C1306   1.275       .  A
O1297     Cu1302   2.019   1_564  S
O1297      C1306   1.279       .  A
O1298     Cu1302   2.021       .  S
O1298      C1305   1.279       .  A
O1299     Cu1302   2.016   1_554  S
O1299      C1304   1.278       .  A
O1300     Cu1302   2.023   1_565  S
O1300      C1303   1.280       .  A
Cu1301    Cu1302   2.370       .  S
C1303      C2081   1.480       .  S
C1304      C1535   1.487       .  S
C1305      C2627   1.484       .  S
C1306      C1787   1.470       .  S
O1307     Cu1315   2.025       .  S
O1307      C1317   1.280       .  A
O1308     Cu1315   2.017   1_554  S
O1308      C1318   1.278       .  A
O1309     Cu1315   2.021   1_554  S
O1309      C1319   1.279       .  A
O1310     Cu1315   2.023       .  S
O1310      C1320   1.279       .  A
O1311     Cu1316   2.000       .  S
O1311      C1320   1.277       .  A
O1312     Cu1316   2.000   1_554  S
O1312      C1319   1.277       .  A
O1313     Cu1316   2.005   1_554  S
O1313      C1318   1.277       .  A
O1314     Cu1316   1.998       .  S
O1314      C1317   1.277       .  A
Cu1315    Cu1316   2.374       .  S
C1317      C2039   1.480       .  S
C1318      C1955   1.476       .  S
C1319      C1703   1.478       .  S
C1320      C2207   1.477       .  S
C1321      C1322   1.406       .  A
C1321      C1326   1.402       .  A
C1321      H1328   1.083       .  S
C1322      C1323   1.417       .  A
C1323      C1324   1.407       .  A
C1323      N1330   1.437       .  S
C1324      C1325   1.400       .  A
C1324      H1329   1.084       .  S
C1325      C1326   1.406       .  A
C1326      N1327   1.438       .  S
N1327      H1331   1.046       .  S
N1327      H1332   1.045       .  S
N1330      H1333   1.045       .  S
N1330      H1334   1.046       .  S
C1335      C1336   1.407       .  A
C1335      C1340   1.408       .  A
C1335      H1342   1.084       .  S
C1336      C1337   1.417       .  A
C1337      C1338   1.397       .  A
C1337      N1344   1.432       .  S
C1338      C1339   1.400       .  A
C1338      H1343   1.084       .  S
C1339      C1340   1.409       .  A
C1340      N1341   1.438       .  S
N1341      H1345   1.046       .  S
N1341      H1346   1.046       .  S
N1344      H1347   1.045       .  S
N1344      H1348   1.043       .  S
C1349      C1350   1.404       .  A
C1349      C1354   1.394       .  A
C1349      H1356   1.084       .  S
C1350      C1351   1.419       .  A
C1351      C1352   1.403       .  A
C1351      N1358   1.440       .  S
C1352      C1353   1.404       .  A
C1352      H1357   1.084       .  S
C1353      C1354   1.412       .  A
C1354      N1355   1.433       .  S
N1355      H1359   1.043       .  S
N1355      H1360   1.045       .  S
N1358      H1361   1.041       .  S
N1358      H1362   1.046       .  S
C1363      C1364   1.403       .  A
C1363      C1368   1.403       .  A
C1363      H1370   1.084       .  S
C1364      C1365   1.418       .  A
C1365      C1366   1.401       .  A
C1365      N1372   1.432       .  S
C1366      C1367   1.401       .  A
C1366      H1371   1.084       .  S
C1367      C1368   1.410       .  A
C1368      N1369   1.438       .  S
N1369      H1373   1.046       .  S
N1369      H1374   1.046       .  S
N1372      H1375   1.045       .  S
N1372      H1376   1.043       .  S
C1377      C1378   1.406       .  A
C1377      C1382   1.402       .  A
C1377      H1384   1.084       .  S
C1378      C1379   1.415       .  A
C1379      C1380   1.399       .  A
C1379      N1386   1.432       .  S
C1380      C1381   1.404       .  A
C1380      H1385   1.084       .  S
C1381      C1382   1.417       .  A
C1382      N1383   1.440       .  S
N1383      H1387   1.046       .  S
N1383      H1388   1.042       .  S
N1386      H1389   1.045       .  S
N1386      H1390   1.042       .  S
C1391      C1392   1.408       .  A
C1391      C1396   1.405       .  A
C1391      H1398   1.083       .  S
C1392      C1393   1.413       .  A
C1393      C1394   1.402       .  A
C1393      N1400   1.431       .  S
C1394      C1395   1.401       .  A
C1394      H1399   1.084       .  S
C1395      C1396   1.416       .  A
C1396      N1397   1.439       .  S
N1397      H1401   1.046       .  S
N1397      H1402   1.042       .  S
N1400      H1403   1.046       .  S
N1400      H1404   1.046       .  S
C1405      C1406   1.402       .  A
C1405      C1410   1.406       .  A
C1405      H1412   1.084       .  S
C1406      C1407   1.407       .  A
C1407      C1408   1.401       .  A
C1407      N1414   1.438       .  S
C1408      C1409   1.405       .  A
C1408      H1413   1.084       .  S
C1409      C1410   1.413       .  A
C1410      N1411   1.437       .  S
N1411      H1415   1.046       .  S
N1411      H1416   1.045       .  S
N1414      H1417   1.044       .  S
N1414      H1418   1.046       .  S
C1419      C1420   1.404       .  A
C1419      C1424   1.402       .  A
C1419      H1426   1.084       .  S
C1420      C1421   1.413       .  A
C1421      C1422   1.403       .  A
C1421      N1428   1.432       .  S
C1422      C1423   1.400       .  A
C1422      H1427   1.084       .  S
C1423      C1424   1.417       .  A
C1424      N1425   1.440       .  S
N1425      H1429   1.046       .  S
N1425      H1430   1.042       .  S
N1428      H1431   1.046       .  S
N1428      H1432   1.046       .  S
C1433      C1434   1.405       .  A
C1433      C1438   1.399       .  A
C1433      H1440   1.083       .  S
C1434      C1435   1.412       .  A
C1435      C1436   1.405       .  A
C1435      N1442   1.437       .  S
C1436      C1437   1.404       .  A
C1436      H1441   1.084       .  S
C1437      C1438   1.415       .  A
C1438      N1439   1.438       .  S
N1439      H1443   1.045       .  S
N1439      H1444   1.042       .  S
N1442      H1445   1.046       .  S
N1442      H1446   1.046       .  S
C1447      C1448   1.400       .  A
C1447      C1452   1.406       .  A
C1447      H1454   1.084       .  S
C1448      C1449   1.414       .  A
C1449      C1450   1.400       .  A
C1449      N1456   1.439       .  S
C1450      C1451   1.406       .  A
C1450      H1455   1.083       .  S
C1451      C1452   1.417       .  A
C1452      N1453   1.437       .  S
N1453      H1457   1.046       .  S
N1453      H1458   1.046       .  S
N1456      H1459   1.043       .  S
N1456      H1460   1.045       .  S
C1461      C1462   1.404       .  A
C1461      C1466   1.398       .  A
C1461      H1468   1.084       .  S
C1462      C1463   1.419       .  A
C1463      C1464   1.403       .  A
C1463      N1470   1.440       .  S
C1464      C1465   1.405       .  A
C1464      H1469   1.084       .  S
C1465      C1466   1.415       .  A
C1466      N1467   1.432       .  S
N1467      H1471   1.043       .  S
N1467      H1472   1.045       .  S
N1470      H1473   1.041       .  S
N1470      H1474   1.046       .  S
C1475      C1476   1.404       .  A
C1475      C1480   1.402       .  A
C1475      H1482   1.084       .  S
C1476      C1477   1.410       .  A
C1477      C1478   1.405       .  A
C1477      N1484   1.438       .  S
C1478      C1479   1.404       .  A
C1478      H1483   1.084       .  S
C1479      C1480   1.417       .  A
C1480      N1481   1.438       .  S
N1481      H1485   1.045       .  S
N1481      H1486   1.042       .  S
N1484      H1487   1.046       .  S
N1484      H1488   1.046       .  S
C1489      C1490   1.406       .  A
C1489      C1494   1.408       .  A
C1489      H1496   1.084       .  S
C1490      C1491   1.415       .  A
C1491      C1492   1.396       .  A
C1491      N1498   1.432       .  S
C1492      C1493   1.402       .  A
C1492      H1497   1.084       .  S
C1493      C1494   1.410       .  A
C1494      N1495   1.438       .  S
N1495      H1499   1.046       .  S
N1495      H1500   1.046       .  S
N1498      H1501   1.045       .  S
N1498      H1502   1.043       .  S
C1503      C1504   1.401       .  A
C1503      C1508   1.402       .  A
C1503      H1510   1.084       .  S
C1504      C1505   1.417       .  A
C1505      C1506   1.401       .  A
C1505      N1512   1.438       .  S
C1506      C1507   1.403       .  A
C1506      H1511   1.084       .  S
C1507      C1508   1.413       .  A
C1508      N1509   1.438       .  S
N1509      H1513   1.046       .  S
N1509      H1514   1.046       .  S
N1512      H1515   1.042       .  S
N1512      H1516   1.045       .  S
C1517      C1518   1.403       .  A
C1517      C1522   1.401       .  A
C1517      H1524   1.084       .  S
C1518      C1519   1.413       .  A
C1519      C1520   1.404       .  A
C1519      N1526   1.438       .  S
C1520      C1521   1.402       .  A
C1520      H1525   1.084       .  S
C1521      C1522   1.418       .  A
C1522      N1523   1.438       .  S
N1523      H1527   1.045       .  S
N1523      H1528   1.042       .  S
N1526      H1529   1.046       .  S
N1526      H1530   1.046       .  S
C1531      C1532   1.400       .  A
C1531      C1536   1.408       .  A
C1531      H1538   1.084       .  S
C1532      C1533   1.403       .  A
C1533      C1534   1.400       .  A
C1533      N1540   1.438       .  S
C1534      C1535   1.409       .  A
C1534      H1539   1.083       .  S
C1535      C1536   1.418       .  A
C1536      N1537   1.438       .  S
N1537      H1541   1.046       .  S
N1537      H1542   1.045       .  S
N1540      H1543   1.046       .  S
N1540      H1544   1.046       .  S
C1545      C1546   1.404       .  A
C1545      C1550   1.406       .  A
C1545      H1552   1.084       .  S
C1546      C1547   1.415       .  A
C1547      C1548   1.399       .  A
C1547      N1554   1.438       .  S
C1548      C1549   1.405       .  A
C1548      H1553   1.083       .  S
C1549      C1550   1.412       .  A
C1550      N1551   1.437       .  S
N1551      H1555   1.046       .  S
N1551      H1556   1.046       .  S
N1554      H1557   1.042       .  S
N1554      H1558   1.045       .  S
C1559      C1560   1.404       .  A
C1559      C1564   1.405       .  A
C1559      H1566   1.084       .  S
C1560      C1561   1.416       .  A
C1561      C1562   1.400       .  A
C1561      N1568   1.432       .  S
C1562      C1563   1.403       .  A
C1562      H1567   1.084       .  S
C1563      C1564   1.413       .  A
C1564      N1565   1.438       .  S
N1565      H1569   1.046       .  S
N1565      H1570   1.046       .  S
N1568      H1571   1.045       .  S
N1568      H1572   1.043       .  S
C1573      C1574   1.403       .  A
C1573      C1578   1.407       .  A
C1573      H1580   1.084       .  S
C1574      C1575   1.408       .  A
C1575      C1576   1.401   1_655  A
C1575      N1582   1.438       .  S
C1576      C1577   1.405       .  A
C1576      H1581   1.084       .  S
C1577      C1578   1.413   1_455  A
C1578      N1579   1.438       .  S
N1579      H1583   1.046       .  S
N1579      H1584   1.046       .  S
N1582      H1585   1.044       .  S
N1582      H1586   1.046   1_655  S
C1587      C1588   1.399       .  A
C1587      C1592   1.406       .  A
C1587      H1594   1.084       .  S
C1588      C1589   1.415       .  A
C1589      C1590   1.400       .  A
C1589      N1596   1.439       .  S
C1590      C1591   1.405       .  A
C1590      H1595   1.083       .  S
C1591      C1592   1.417       .  A
C1592      N1593   1.437       .  S
N1593      H1597   1.046       .  S
N1593      H1598   1.045       .  S
N1596      H1599   1.043       .  S
N1596      H1600   1.045       .  S
C1601      C1602   1.400       .  A
C1601      C1606   1.403       .  A
C1601      H1608   1.084       .  S
C1602      C1603   1.417       .  A
C1603      C1604   1.401       .  A
C1603      N1610   1.440       .  S
C1604      C1605   1.405       .  A
C1604      H1609   1.083       .  S
C1605      C1606   1.413       .  A
C1606      N1607   1.431       .  S
N1607      H1611   1.046       .  S
N1607      H1612   1.046       .  S
N1610      H1613   1.041       .  S
N1610      H1614   1.046       .  S
C1615      C1616   1.404       .  A
C1615      C1620   1.400       .  A
C1615      H1622   1.084       .  S
C1616      C1617   1.412       .  A
C1617      C1618   1.404   1_655  A
C1617      N1624   1.438       .  S
C1618      C1619   1.403       .  A
C1618      H1623   1.084       .  S
C1619      C1620   1.416   1_455  A
C1620      N1621   1.438       .  S
N1621      H1625   1.045       .  S
N1621      H1626   1.042   1_554  S
N1624      H1627   1.046       .  S
N1624      H1628   1.046   1_655  S
C1629      C1630   1.399       .  A
C1629      C1634   1.403       .  A
C1629      H1636   1.084       .  S
C1630      C1631   1.413       .  A
C1631      C1632   1.402       .  A
C1631      N1638   1.439       .  S
C1632      C1633   1.409       .  A
C1632      H1637   1.082       .  S
C1633      C1634   1.415       .  A
C1634      N1635   1.431       .  S
N1635      H1639   1.046       .  S
N1635      H1640   1.046       .  S
N1638      H1641   1.043       .  S
N1638      H1642   1.046       .  S
C1643      C1644   1.403       .  A
C1643      C1648   1.406       .  A
C1643      H1650   1.084       .  S
C1644      C1645   1.415       .  A
C1645      C1646   1.401       .  A
C1645      N1652   1.438       .  S
C1646      C1647   1.405       .  A
C1646      H1651   1.083       .  S
C1647      C1648   1.412       .  A
C1648      N1649   1.437       .  S
N1649      H1653   1.046       .  S
N1649      H1654   1.046       .  S
N1652      H1655   1.043       .  S
N1652      H1656   1.045       .  S
C1657      C1658   1.406       .  A
C1657      C1662   1.404       .  A
C1657      H1664   1.083       .  S
C1658      C1659   1.417       .  A
C1659      C1660   1.405       .  A
C1659      N1666   1.437       .  S
C1660      C1661   1.399       .  A
C1660      H1665   1.084       .  S
C1661      C1662   1.408       .  A
C1662      N1663   1.438       .  S
N1663      H1667   1.046       .  S
N1663      H1668   1.045       .  S
N1666      H1669   1.046       .  S
N1666      H1670   1.046       .  S
C1671      C1672   1.402       .  A
C1671      C1676   1.407       .  A
C1671      H1678   1.084       .  S
C1672      C1673   1.408       .  A
C1673      C1674   1.404       .  A
C1673      N1680   1.438       .  S
C1674      C1675   1.407       .  A
C1674      H1679   1.083       .  S
C1675      C1676   1.415       .  A
C1676      N1677   1.438       .  S
N1677      H1681   1.046       .  S
N1677      H1682   1.046       .  S
N1680      H1683   1.045       .  S
N1680      H1684   1.046   1_655  S
C1685      C1686   1.406       .  A
C1685      C1690   1.406       .  A
C1685      H1692   1.083       .  S
C1686      C1687   1.414       .  A
C1687      C1688   1.404       .  A
C1687      N1694   1.437       .  S
C1688      C1689   1.400       .  A
C1688      H1693   1.084       .  S
C1689      C1690   1.408       .  A
C1690      N1691   1.437       .  S
N1691      H1695   1.046       .  S
N1691      H1696   1.045       .  S
N1694      H1697   1.045       .  S
N1694      H1698   1.046       .  S
C1699      C1700   1.404       .  A
C1699      C1704   1.404       .  A
C1699      H1706   1.084       .  S
C1700      C1701   1.416       .  A
C1701      C1702   1.402   1_655  A
C1701      N1708   1.432       .  S
C1702      C1703   1.403       .  A
C1702      H1707   1.084       .  S
C1703      C1704   1.411   1_455  A
C1704      N1705   1.438       .  S
N1705      H1709   1.046       .  S
N1705      H1710   1.046   1_554  S
N1708      H1711   1.045       .  S
N1708      H1712   1.043       .  S
C1713      C1714   1.405       .  A
C1713      C1718   1.402       .  A
C1713      H1720   1.083       .  S
C1714      C1715   1.414       .  A
C1715      C1716   1.406       .  A
C1715      N1722   1.437       .  S
C1716      C1717   1.404       .  A
C1716      H1721   1.084       .  S
C1717      C1718   1.418       .  A
C1718      N1719   1.437       .  S
N1719      H1723   1.045       .  S
N1719      H1724   1.042       .  S
N1722      H1725   1.046       .  S
N1722      H1726   1.046       .  S
C1727      C1728   1.405       .  A
C1727      C1732   1.406       .  A
C1727      H1734   1.083       .  S
C1728      C1729   1.418       .  A
C1729      C1730   1.400       .  A
C1729      N1736   1.432       .  S
C1730      C1731   1.403       .  A
C1730      H1735   1.084       .  S
C1731      C1732   1.412       .  A
C1732      N1733   1.438       .  S
N1733      H1737   1.046       .  S
N1733      H1738   1.046       .  S
N1736      H1739   1.045       .  S
N1736      H1740   1.043       .  S
C1741      C1742   1.402       .  A
C1741      C1746   1.396   1_655  A
C1741      H1748   1.084       .  S
C1742      C1743   1.414       .  A
C1743      C1744   1.407       .  A
C1743      N1750   1.437       .  S
C1744      C1745   1.402   1_655  A
C1744      H1749   1.084       .  S
C1745      C1746   1.414       .  A
C1746      N1747   1.433       .  S
N1747      H1751   1.044       .  S
N1747      H1752   1.046       .  S
N1750      H1753   1.046       .  S
N1750      H1754   1.046       .  S
C1755      C1756   1.405       .  A
C1755      C1760   1.402       .  A
C1755      H1762   1.084       .  S
C1756      C1757   1.413       .  A
C1757      C1758   1.403       .  A
C1757      N1764   1.432       .  S
C1758      C1759   1.400       .  A
C1758      H1763   1.084       .  S
C1759      C1760   1.417       .  A
C1760      N1761   1.439       .  S
N1761      H1765   1.046       .  S
N1761      H1766   1.042       .  S
N1764      H1767   1.046       .  S
N1764      H1768   1.046       .  S
C1769      C1770   1.403       .  A
C1769      C1774   1.408       .  A
C1769      H1776   1.084       .  S
C1770      C1771   1.414       .  A
C1771      C1772   1.398       .  A
C1771      N1778   1.432       .  S
C1772      C1773   1.404       .  A
C1772      H1777   1.083       .  S
C1773      C1774   1.414       .  A
C1774      N1775   1.437       .  S
N1775      H1779   1.046       .  S
N1775      H1780   1.046       .  S
N1778      H1781   1.046       .  S
N1778      H1782   1.043       .  S
C1783      C1784   1.406       .  A
C1783      C1788   1.407       .  A
C1783      H1790   1.084       .  S
C1784      C1785   1.415       .  A
C1785      C1786   1.394       .  A
C1785      N1792   1.432       .  S
C1786      C1787   1.401       .  A
C1786      H1791   1.084       .  S
C1787      C1788   1.409       .  A
C1788      N1789   1.438       .  S
N1789      H1793   1.046       .  S
N1789      H1794   1.046       .  S
N1792      H1795   1.045       .  S
N1792      H1796   1.043       .  S
C1797      C1798   1.403       .  A
C1797      C1802   1.407       .  A
C1797      H1804   1.084       .  S
C1798      C1799   1.417       .  A
C1799      C1800   1.400       .  A
C1799      N1806   1.438       .  S
C1800      C1801   1.404       .  A
C1800      H1805   1.083       .  S
C1801      C1802   1.414       .  A
C1802      N1803   1.437       .  S
N1803      H1807   1.046       .  S
N1803      H1808   1.046       .  S
N1806      H1809   1.042       .  S
N1806      H1810   1.045       .  S
C1811      C1812   1.400       .  A
C1811      C1816   1.407       .  A
C1811      H1818   1.084       .  S
C1812      C1813   1.416       .  A
C1813      C1814   1.399       .  A
C1813      N1820   1.439       .  S
C1814      C1815   1.404       .  A
C1814      H1819   1.084       .  S
C1815      C1816   1.416       .  A
C1816      N1817   1.437       .  S
N1817      H1821   1.046       .  S
N1817      H1822   1.046       .  S
N1820      H1823   1.042       .  S
N1820      H1824   1.045       .  S
C1825      C1826   1.408       .  A
C1825      C1830   1.401       .  A
C1825      H1832   1.082       .  S
C1826      C1827   1.419       .  A
C1827      C1828   1.406       .  A
C1827      N1834   1.437       .  S
C1828      C1829   1.399       .  A
C1828      H1833   1.084       .  S
C1829      C1830   1.412       .  A
C1830      N1831   1.438       .  S
N1831      H1835   1.045       .  S
N1831      H1836   1.042       .  S
N1834      H1837   1.046       .  S
N1834      H1838   1.046       .  S
C1839      C1840   1.406       .  A
C1839      C1844   1.406       .  A
C1839      H1846   1.083       .  S
C1840      C1841   1.413       .  A
C1841      C1842   1.403       .  A
C1841      N1848   1.438       .  S
C1842      C1843   1.401       .  A
C1842      H1847   1.084       .  S
C1843      C1844   1.409       .  A
C1844      N1845   1.438       .  S
N1845      H1849   1.046       .  S
N1845      H1850   1.045       .  S
N1848      H1851   1.046       .  S
N1848      H1852   1.046       .  S
C1853      C1854   1.400       .  A
C1853      C1858   1.404       .  A
C1853      H1860   1.083       .  S
C1854      C1855   1.408       .  A
C1855      C1856   1.406       .  A
C1855      N1862   1.437       .  S
C1856      C1857   1.407       .  A
C1856      H1861   1.083       .  S
C1857      C1858   1.414       .  A
C1858      N1859   1.437       .  S
N1859      H1863   1.046       .  S
N1859      H1864   1.045       .  S
N1862      H1865   1.045       .  S
N1862      H1866   1.046       .  S
C1867      C1868   1.401       .  A
C1867      C1872   1.393       .  A
C1867      H1874   1.084       .  S
C1868      C1869   1.409       .  A
C1869      C1870   1.408       .  A
C1869      N1876   1.437       .  S
C1870      C1871   1.407       .  A
C1870      H1875   1.084       .  S
C1871      C1872   1.415       .  A
C1872      N1873   1.432       .  S
N1873      H1877   1.043       .  S
N1873      H1878   1.045       .  S
N1876      H1879   1.045       .  S
N1876      H1880   1.046       .  S
C1881      C1882   1.406       .  A
C1881      C1886   1.402       .  A
C1881      H1888   1.084       .  S
C1882      C1883   1.415       .  A
C1883      C1884   1.405       .  A
C1883      N1890   1.437       .  S
C1884      C1885   1.402       .  A
C1884      H1889   1.084       .  S
C1885      C1886   1.416       .  A
C1886      N1887   1.438       .  S
N1887      H1891   1.045       .  S
N1887      H1892   1.042       .  S
N1890      H1893   1.046       .  S
N1890      H1894   1.046       .  S
C1895      C1896   1.402       .  A
C1895      C1900   1.407       .  A
C1895      H1902   1.084       .  S
C1896      C1897   1.416       .  A
C1897      C1898   1.400       .  A
C1897      N1904   1.438       .  S
C1898      C1899   1.405       .  A
C1898      H1903   1.083       .  S
C1899      C1900   1.414       .  A
C1900      N1901   1.437       .  S
N1901      H1905   1.046       .  S
N1901      H1906   1.046       .  S
N1904      H1907   1.042       .  S
N1904      H1908   1.045       .  S
C1909      C1910   1.403       .  A
C1909      C1914   1.397       .  A
C1909      H1916   1.084       .  S
C1910      C1911   1.417       .  A
C1911      C1912   1.402       .  A
C1911      N1918   1.438       .  S
C1912      C1913   1.405       .  A
C1912      H1917   1.084       .  S
C1913      C1914   1.416       .  A
C1914      N1915   1.440       .  S
N1915      H1919   1.046       .  S
N1915      H1920   1.041       .  S
N1918      H1921   1.041       .  S
N1918      H1922   1.045       .  S
C1923      C1924   1.405       .  A
C1923      C1928   1.404       .  A
C1923      H1930   1.084       .  S
C1924      C1925   1.416       .  A
C1925      C1926   1.398       .  A
C1925      N1932   1.432       .  S
C1926      C1927   1.403       .  A
C1926      H1931   1.084       .  S
C1927      C1928   1.419       .  A
C1928      N1929   1.440       .  S
N1929      H1933   1.046       .  S
N1929      H1934   1.042       .  S
N1932      H1935   1.045       .  S
N1932      H1936   1.043       .  S
C1937      C1938   1.404       .  A
C1937      C1942   1.400       .  A
C1937      H1944   1.083       .  S
C1938      C1939   1.414       .  A
C1939      C1940   1.407       .  A
C1939      N1946   1.437       .  S
C1940      C1941   1.403       .  A
C1940      H1945   1.084       .  S
C1941      C1942   1.417       .  A
C1942      N1943   1.438       .  S
N1943      H1947   1.045       .  S
N1943      H1948   1.042       .  S
N1946      H1949   1.046       .  S
N1946      H1950   1.046       .  S
C1951      C1952   1.405       .  A
C1951      C1956   1.402       .  A
C1951      H1958   1.084       .  S
C1952      C1953   1.418       .  A
C1953      C1954   1.401       .  A
C1953      N1960   1.432       .  S
C1954      C1955   1.402       .  A
C1954      H1959   1.084       .  S
C1955      C1956   1.417       .  A
C1956      N1957   1.440       .  S
N1957      H1961   1.046       .  S
N1957      H1962   1.043       .  S
N1960      H1963   1.045       .  S
N1960      H1964   1.042       .  S
C1965      C1966   1.400       .  A
C1965      C1970   1.408       .  A
C1965      H1972   1.084       .  S
C1966      C1967   1.415       .  A
C1967      C1968   1.401       .  A
C1967      N1974   1.439       .  S
C1968      C1969   1.406       .  A
C1968      H1973   1.083       .  S
C1969      C1970   1.416       .  A
C1970      N1971   1.437       .  S
N1971      H1975   1.046       .  S
N1971      H1976   1.046       .  S
N1974      H1977   1.043       .  S
N1974      H1978   1.045       .  S
C1979      C1980   1.404       .  A
C1979      C1984   1.409       .  A
C1979      H1986   1.084       .  S
C1980      C1981   1.414       .  A
C1981      C1982   1.398       .  A
C1981      N1988   1.432       .  S
C1982      C1983   1.405       .  A
C1982      H1987   1.083       .  S
C1983      C1984   1.415       .  A
C1984      N1985   1.437       .  S
N1985      H1989   1.046       .  S
N1985      H1990   1.046       .  S
N1988      H1991   1.046       .  S
N1988      H1992   1.043       .  S
C1993      C1994   1.404       .  A
C1993      C1998   1.401       .  A
C1993      H2000   1.084       .  S
C1994      C1995   1.418       .  A
C1995      C1996   1.398       .  A
C1995      N2002   1.432       .  S
C1996      C1997   1.401       .  A
C1996      H2001   1.084       .  S
C1997      C1998   1.416       .  A
C1998      N1999   1.440       .  S
N1999      H2003   1.046       .  S
N1999      H2004   1.042       .  S
N2002      H2005   1.045       .  S
N2002      H2006   1.042       .  S
C2007      C2008   1.405       .  A
C2007      C2012   1.401       .  A
C2007      H2014   1.084       .  S
C2008      C2009   1.413       .  A
C2009      C2010   1.403       .  A
C2009      N2016   1.438       .  S
C2010      C2011   1.402       .  A
C2010      H2015   1.084       .  S
C2011      C2012   1.416       .  A
C2012      N2013   1.438       .  S
N2013      H2017   1.045       .  S
N2013      H2018   1.042       .  S
N2016      H2019   1.046       .  S
N2016      H2020   1.046       .  S
C2021      C2022   1.403       .  A
C2021      C2026   1.400       .  A
C2021      H2028   1.084       .  S
C2022      C2023   1.420       .  A
C2023      C2024   1.401       .  A
C2023      N2030   1.440       .  S
C2024      C2025   1.402       .  A
C2024      H2029   1.084       .  S
C2025      C2026   1.416       .  A
C2026      N2027   1.432       .  S
N2027      H2031   1.043       .  S
N2027      H2032   1.045       .  S
N2030      H2033   1.041       .  S
N2030      H2034   1.046       .  S
C2035      C2036   1.405       .  A
C2035      C2040   1.410       .  A
C2035      H2042   1.084       .  S
C2036      C2037   1.415       .  A
C2037      C2038   1.397   1_655  A
C2037      N2044   1.432       .  S
C2038      C2039   1.403       .  A
C2038      H2043   1.084       .  S
C2039      C2040   1.412   1_455  A
C2040      N2041   1.438       .  S
N2041      H2045   1.046       .  S
N2041      H2046   1.046       .  S
N2044      H2047   1.045       .  S
N2044      H2048   1.043   1_655  S
C2049      C2050   1.403       .  A
C2049      C2054   1.406       .  A
C2049      H2056   1.084       .  S
C2050      C2051   1.418       .  A
C2051      C2052   1.403       .  A
C2051      N2058   1.438       .  S
C2052      C2053   1.403       .  A
C2052      H2057   1.084       .  S
C2053      C2054   1.413       .  A
C2054      N2055   1.438       .  S
N2055      H2059   1.046       .  S
N2055      H2060   1.046       .  S
N2058      H2061   1.042       .  S
N2058      H2062   1.045       .  S
C2063      C2064   1.404       .  A
C2063      C2068   1.407       .  A
C2063      H2070   1.084       .  S
C2064      C2065   1.418       .  A
C2065      C2066   1.402       .  A
C2065      N2072   1.437       .  S
C2066      C2067   1.405       .  A
C2066      H2071   1.084       .  S
C2067      C2068   1.414       .  A
C2068      N2069   1.437       .  S
N2069      H2073   1.046       .  S
N2069      H2074   1.046       .  S
N2072      H2075   1.042       .  S
N2072      H2076   1.045       .  S
C2077      C2078   1.404       .  A
C2077      C2082   1.407       .  A
C2077      H2084   1.084       .  S
C2078      C2079   1.408       .  A
C2079      C2080   1.401       .  A
C2079      N2086   1.438       .  S
C2080      C2081   1.405       .  A
C2080      H2085   1.084       .  S
C2081      C2082   1.412       .  A
C2082      N2083   1.438       .  S
N2083      H2087   1.046       .  S
N2083      H2088   1.046       .  S
N2086      H2089   1.044       .  S
N2086      H2090   1.046       .  S
C2091      C2092   1.398       .  A
C2091      C2096   1.406       .  A
C2091      H2098   1.084       .  S
C2092      C2093   1.411       .  A
C2093      C2094   1.402       .  A
C2093      N2100   1.439       .  S
C2094      C2095   1.412       .  A
C2094      H2099   1.080       .  S
C2095      C2096   1.422       .  A
C2096      N2097   1.435       .  S
N2097      H2101   1.046       .  S
N2097      H2102   1.046       .  S
N2100      H2103   1.043       .  S
N2100      H2104   1.046       .  S
C2105      C2106   1.402       .  A
C2105      C2110   1.399       .  A
C2105      H2112   1.084       .  S
C2106      C2107   1.414       .  A
C2107      C2108   1.406       .  A
C2107      N2114   1.438       .  S
C2108      C2109   1.402       .  A
C2108      H2113   1.084       .  S
C2109      C2110   1.416       .  A
C2110      N2111   1.432       .  S
N2111      H2115   1.043       .  S
N2111      H2116   1.045       .  S
N2114      H2117   1.046       .  S
N2114      H2118   1.046       .  S
C2119      C2120   1.405   1_655  A
C2119      C2124   1.407       .  A
C2119      H2126   1.084       .  S
C2120      C2121   1.412       .  A
C2121      C2122   1.399   1_455  A
C2121      N2128   1.433       .  S
C2122      C2123   1.399       .  A
C2122      H2127   1.084       .  S
C2123      C2124   1.410       .  A
C2124      N2125   1.438       .  S
N2125      H2129   1.046       .  S
N2125      H2130   1.046       .  S
N2128      H2131   1.046       .  S
N2128      H2132   1.046       .  S
C2133      C2134   1.404       .  A
C2133      C2138   1.402       .  A
C2133      H2140   1.084       .  S
C2134      C2135   1.412       .  A
C2135      C2136   1.403       .  A
C2135      N2142   1.432       .  S
C2136      C2137   1.400       .  A
C2136      H2141   1.084       .  S
C2137      C2138   1.418       .  A
C2138      N2139   1.439       .  S
N2139      H2143   1.046       .  S
N2139      H2144   1.042       .  S
N2142      H2145   1.046       .  S
N2142      H2146   1.046       .  S
C2147      C2148   1.409       .  A
C2147      C2152   1.401       .  A
C2147      H2154   1.082       .  S
C2148      C2149   1.422       .  A
C2149      C2150   1.406       .  A
C2149      N2156   1.436       .  S
C2150      C2151   1.397       .  A
C2150      H2155   1.084       .  S
C2151      C2152   1.412       .  A
C2152      N2153   1.439       .  S
N2153      H2157   1.046       .  S
N2153      H2158   1.043       .  S
N2156      H2159   1.046       .  S
N2156      H2160   1.046       .  S
C2161      C2162   1.399       .  A
C2161      C2166   1.406       .  A
C2161      H2168   1.084       .  S
C2162      C2163   1.407       .  A
C2163      C2164   1.403       .  A
C2163      N2170   1.439       .  S
C2164      C2165   1.406       .  A
C2164      H2169   1.083       .  S
C2165      C2166   1.416       .  A
C2166      N2167   1.437       .  S
N2167      H2171   1.046       .  S
N2167      H2172   1.046       .  S
N2170      H2173   1.045       .  S
N2170      H2174   1.046       .  S
C2175      C2176   1.402       .  A
C2175      C2180   1.404       .  A
C2175      H2182   1.084       .  S
C2176      C2177   1.411       .  A
C2177      C2178   1.396       .  A
C2177      N2184   1.432       .  S
C2178      C2179   1.405       .  A
C2178      H2183   1.084       .  S
C2179      C2180   1.423       .  A
C2180      N2181   1.439       .  S
N2181      H2185   1.046       .  S
N2181      H2186   1.039       .  S
N2184      H2187   1.045       .  S
N2184      H2188   1.043       .  S
C2189      C2190   1.402       .  A
C2189      C2194   1.407       .  A
C2189      H2196   1.084       .  S
C2190      C2191   1.414       .  A
C2191      C2192   1.400       .  A
C2191      N2198   1.440       .  S
C2192      C2193   1.406       .  A
C2192      H2197   1.084       .  S
C2193      C2194   1.415       .  A
C2194      N2195   1.438       .  S
N2195      H2199   1.046       .  S
N2195      H2200   1.045       .  S
N2198      H2201   1.042       .  S
N2198      H2202   1.046       .  S
C2203      C2204   1.406       .  A
C2203      C2208   1.405       .  A
C2203      H2210   1.084       .  S
C2204      C2205   1.414       .  A
C2205      C2206   1.404       .  A
C2205      N2212   1.438       .  S
C2206      C2207   1.402       .  A
C2206      H2211   1.084       .  S
C2207      C2208   1.417       .  A
C2208      N2209   1.438       .  S
N2209      H2213   1.045       .  S
N2209      H2214   1.042       .  S
N2212      H2215   1.046       .  S
N2212      H2216   1.046       .  S
C2217      C2218   1.403       .  A
C2217      C2222   1.409       .  A
C2217      H2224   1.084       .  S
C2218      C2219   1.416       .  A
C2219      C2220   1.400       .  A
C2219      N2226   1.437       .  S
C2220      C2221   1.406       .  A
C2220      H2225   1.083       .  S
C2221      C2222   1.416       .  A
C2222      N2223   1.437       .  S
N2223      H2227   1.046       .  S
N2223      H2228   1.045       .  S
N2226      H2229   1.042       .  S
N2226      H2230   1.045       .  S
C2231      C2232   1.404       .  A
C2231      C2236   1.404       .  A
C2231      H2238   1.084       .  S
C2232      C2233   1.414       .  A
C2233      C2234   1.398       .  A
C2233      N2240   1.432       .  S
C2234      C2235   1.403       .  A
C2234      H2239   1.084       .  S
C2235      C2236   1.418       .  A
C2236      N2237   1.439       .  S
N2237      H2241   1.046       .  S
N2237      H2242   1.042       .  S
N2240      H2243   1.045       .  S
N2240      H2244   1.043       .  S
C2245      C2246   1.405       .  A
C2245      C2250   1.407       .  A
C2245      H2252   1.084       .  S
C2246      C2247   1.414       .  A
C2247      C2248   1.395       .  A
C2247      N2254   1.432       .  S
C2248      C2249   1.402       .  A
C2248      H2253   1.084       .  S
C2249      C2250   1.411       .  A
C2250      N2251   1.438       .  S
N2251      H2255   1.046       .  S
N2251      H2256   1.046       .  S
N2254      H2257   1.045       .  S
N2254      H2258   1.043       .  S
C2259      C2260   1.403       .  A
C2259      C2264   1.405       .  A
C2259      H2266   1.084       .  S
C2260      C2261   1.414       .  A
C2261      C2262   1.401       .  A
C2261      N2268   1.438       .  S
C2262      C2263   1.406       .  A
C2262      H2267   1.083       .  S
C2263      C2264   1.412       .  A
C2264      N2265   1.437       .  S
N2265      H2269   1.046       .  S
N2265      H2270   1.046       .  S
N2268      H2271   1.043       .  S
N2268      H2272   1.045       .  S
C2273      C2274   1.406       .  A
C2273      C2278   1.405       .  A
C2273      H2280   1.083       .  S
C2274      C2275   1.412       .  A
C2275      C2276   1.403       .  A
C2275      N2282   1.431       .  S
C2276      C2277   1.402       .  A
C2276      H2281   1.084       .  S
C2277      C2278   1.417       .  A
C2278      N2279   1.439       .  S
N2279      H2283   1.046       .  S
N2279      H2284   1.042       .  S
N2282      H2285   1.046       .  S
N2282      H2286   1.046       .  S
C2287      C2288   1.405       .  A
C2287      C2292   1.401       .  A
C2287      H2294   1.084       .  S
C2288      C2289   1.412       .  A
C2289      C2290   1.401       .  A
C2289      N2296   1.438       .  S
C2290      C2291   1.401       .  A
C2290      H2295   1.084       .  S
C2291      C2292   1.416       .  A
C2292      N2293   1.439       .  S
N2293      H2297   1.045       .  S
N2293      H2298   1.042       .  S
N2296      H2299   1.046       .  S
N2296      H2300   1.046       .  S
C2301      C2302   1.404       .  A
C2301      C2306   1.400       .  A
C2301      H2308   1.083       .  S
C2302      C2303   1.415       .  A
C2303      C2304   1.408       .  A
C2303      N2310   1.437       .  S
C2304      C2305   1.403       .  A
C2304      H2309   1.084       .  S
C2305      C2306   1.417       .  A
C2306      N2307   1.438       .  S
N2307      H2311   1.045       .  S
N2307      H2312   1.042       .  S
N2310      H2313   1.046       .  S
N2310      H2314   1.046       .  S
C2315      C2316   1.404       .  A
C2315      C2320   1.398       .  A
C2315      H2322   1.084       .  S
C2316      C2317   1.416       .  A
C2317      C2318   1.403       .  A
C2317      N2324   1.439       .  S
C2318      C2319   1.405       .  A
C2318      H2323   1.084       .  S
C2319      C2320   1.414       .  A
C2320      N2321   1.432       .  S
N2321      H2325   1.043       .  S
N2321      H2326   1.045       .  S
N2324      H2327   1.042       .  S
N2324      H2328   1.046       .  S
C2329      C2330   1.399       .  A
C2329      C2334   1.408       .  A
C2329      H2336   1.084       .  S
C2330      C2331   1.403       .  A
C2331      C2332   1.403       .  A
C2331      N2338   1.438       .  S
C2332      C2333   1.410       .  A
C2332      H2337   1.083       .  S
C2333      C2334   1.419       .  A
C2334      N2335   1.438       .  S
N2335      H2339   1.046       .  S
N2335      H2340   1.046       .  S
N2338      H2341   1.045       .  S
N2338      H2342   1.046       .  S
C2343      C2344   1.399       .  A
C2343      C2348   1.403       .  A
C2343      H2350   1.084       .  S
C2344      C2345   1.414       .  A
C2345      C2346   1.399       .  A
C2345      N2352   1.440       .  S
C2346      C2347   1.406       .  A
C2346      H2351   1.083       .  S
C2347      C2348   1.414       .  A
C2348      N2349   1.431       .  S
N2349      H2353   1.046       .  S
N2349      H2354   1.046       .  S
N2352      H2355   1.043       .  S
N2352      H2356   1.046       .  S
C2357      C2358   1.406       .  A
C2357      C2362   1.402       .  A
C2357      H2364   1.083       .  S
C2358      C2359   1.414       .  A
C2359      C2360   1.403       .  A
C2359      N2366   1.438       .  S
C2360      C2361   1.400       .  A
C2360      H2365   1.084       .  S
C2361      C2362   1.415       .  A
C2362      N2363   1.439       .  S
N2363      H2367   1.045       .  S
N2363      H2368   1.043       .  S
N2366      H2369   1.046       .  S
N2366      H2370   1.046       .  S
C2371      C2372   1.395       .  A
C2371      C2376   1.402       .  A
C2371      H2378   1.084       .  S
C2372      C2373   1.407       .  A
C2373      C2374   1.407       .  A
C2373      N2380   1.437       .  S
C2374      C2375   1.408       .  A
C2374      H2379   1.083       .  S
C2375      C2376   1.421       .  A
C2376      N2377   1.438       .  S
N2377      H2381   1.046       .  S
N2377      H2382   1.046       .  S
N2380      H2383   1.046       .  S
N2380      H2384   1.046       .  S
C2385      C2386   1.403       .  A
C2385      C2390   1.404       .  A
C2385      H2392   1.084       .  S
C2386      C2387   1.416       .  A
C2387      C2388   1.400       .  A
C2387      N2394   1.432       .  S
C2388      C2389   1.403       .  A
C2388      H2393   1.084       .  S
C2389      C2390   1.412       .  A
C2390      N2391   1.438       .  S
N2391      H2395   1.046       .  S
N2391      H2396   1.046       .  S
N2394      H2397   1.045       .  S
N2394      H2398   1.043       .  S
C2399      C2400   1.404       .  A
C2399      C2404   1.401       .  A
C2399      H2406   1.084       .  S
C2400      C2401   1.412       .  A
C2401      C2402   1.404       .  A
C2401      N2408   1.438       .  S
C2402      C2403   1.403       .  A
C2402      H2407   1.084       .  S
C2403      C2404   1.417       .  A
C2404      N2405   1.438       .  S
N2405      H2409   1.045       .  S
N2405      H2410   1.042       .  S
N2408      H2411   1.046       .  S
N2408      H2412   1.046       .  S
C2413      C2414   1.406       .  A
C2413      C2418   1.399       .  A
C2413      H2420   1.083       .  S
C2414      C2415   1.413       .  A
C2415      C2416   1.404       .  A
C2415      N2422   1.431       .  S
C2416      C2417   1.400       .  A
C2416      H2421   1.084       .  S
C2417      C2418   1.413       .  A
C2418      N2419   1.440       .  S
N2419      H2423   1.046       .  S
N2419      H2424   1.043       .  S
N2422      H2425   1.046       .  S
N2422      H2426   1.045       .  S
C2427      C2428   1.405       .  A
C2427      C2432   1.400       .  A
C2427      H2434   1.083       .  S
C2428      C2429   1.416       .  A
C2429      C2430   1.408       .  A
C2429      N2436   1.437       .  S
C2430      C2431   1.401       .  A
C2430      H2435   1.084       .  S
C2431      C2432   1.415       .  A
C2432      N2433   1.438       .  S
N2433      H2437   1.045       .  S
N2433      H2438   1.042       .  S
N2436      H2439   1.045       .  S
N2436      H2440   1.046       .  S
C2441      C2442   1.403       .  A
C2441      C2446   1.405       .  A
C2441      H2448   1.084       .  S
C2442      C2443   1.418       .  A
C2443      C2444   1.402       .  A
C2443      N2450   1.438       .  S
C2444      C2445   1.404       .  A
C2444      H2449   1.084       .  S
C2445      C2446   1.412       .  A
C2446      N2447   1.438       .  S
N2447      H2451   1.046       .  S
N2447      H2452   1.046       .  S
N2450      H2453   1.042       .  S
N2450      H2454   1.045       .  S
C2455      C2456   1.407       .  A
C2455      C2460   1.405       .  A
C2455      H2462   1.083       .  S
C2456      C2457   1.413       .  A
C2457      C2458   1.402       .  A
C2457      N2464   1.432       .  S
C2458      C2459   1.399       .  A
C2458      H2463   1.084       .  S
C2459      C2460   1.407       .  A
C2460      N2461   1.438       .  S
N2461      H2465   1.046       .  S
N2461      H2466   1.046       .  S
N2464      H2467   1.046       .  S
N2464      H2468   1.046       .  S
C2469      C2470   1.406       .  A
C2469      C2474   1.403       .  A
C2469      H2476   1.084       .  S
C2470      C2471   1.416       .  A
C2471      C2472   1.398       .  A
C2471      N2478   1.432       .  S
C2472      C2473   1.402       .  A
C2472      H2477   1.084       .  S
C2473      C2474   1.415       .  A
C2474      N2475   1.439       .  S
N2475      H2479   1.046       .  S
N2475      H2480   1.042       .  S
N2478      H2481   1.045       .  S
N2478      H2482   1.042       .  S
C2483      C2484   1.404       .  A
C2483      C2488   1.400       .  A
C2483      H2490   1.084       .  S
C2484      C2485   1.416       .  A
C2485      C2486   1.407       .  A
C2485      N2492   1.437       .  S
C2486      C2487   1.401       .  A
C2486      H2491   1.084       .  S
C2487      C2488   1.416       .  A
C2488      N2489   1.439       .  S
N2489      H2493   1.045       .  S
N2489      H2494   1.042       .  S
N2492      H2495   1.046       .  S
N2492      H2496   1.046       .  S
C2497      C2498   1.406       .  A
C2497      C2502   1.402       .  A
C2497      H2504   1.084       .  S
C2498      C2499   1.416       .  A
C2499      C2500   1.395       .  A
C2499      N2506   1.432       .  S
C2500      C2501   1.400       .  A
C2500      H2505   1.085       .  S
C2501      C2502   1.415       .  A
C2502      N2503   1.439       .  S
N2503      H2507   1.046       .  S
N2503      H2508   1.042       .  S
N2506      H2509   1.045       .  S
N2506      H2510   1.043       .  S
C2511      C2512   1.408       .  A
C2511      C2516   1.404       .  A
C2511      H2518   1.083       .  S
C2512      C2513   1.418       .  A
C2513      C2514   1.394       .  A
C2513      N2520   1.432       .  S
C2514      C2515   1.399       .  A
C2514      H2519   1.083       .  S
C2515      C2516   1.415       .  A
C2516      N2517   1.439       .  S
N2517      H2521   1.046       .  S
N2517      H2522   1.042       .  S
N2520      H2523   1.045       .  S
N2520      H2524   1.043       .  S
C2525      C2526   1.399       .  A
C2525      C2530   1.407       .  A
C2525      H2532   1.084       .  S
C2526      C2527   1.407       .  A
C2527      C2528   1.404       .  A
C2527      N2534   1.438       .  S
C2528      C2529   1.407       .  A
C2528      H2533   1.083       .  S
C2529      C2530   1.417       .  A
C2530      N2531   1.437       .  S
N2531      H2535   1.046       .  S
N2531      H2536   1.045       .  S
N2534      H2537   1.045       .  S
N2534      H2538   1.046       .  S
C2539      C2540   1.405       .  A
C2539      C2544   1.405       .  A
C2539      H2546   1.083       .  S
C2540      C2541   1.416       .  A
C2541      C2542   1.405   1_655  A
C2541      N2548   1.437   1_655  S
C2542      C2543   1.399       .  A
C2542      H2547   1.084       .  S
C2543      C2544   1.408   1_455  A
C2544      N2545   1.438       .  S
N2545      H2549   1.046       .  S
N2545      H2550   1.045       .  S
N2548      H2551   1.046   1_455  S
N2548      H2552   1.046       .  S
C2553      C2554   1.403       .  A
C2553      C2558   1.401       .  A
C2553      H2560   1.084       .  S
C2554      C2555   1.412       .  A
C2555      C2556   1.404       .  A
C2555      N2562   1.432       .  S
C2556      C2557   1.401       .  A
C2556      H2561   1.084       .  S
C2557      C2558   1.418       .  A
C2558      N2559   1.440       .  S
N2559      H2563   1.046       .  S
N2559      H2564   1.042       .  S
N2562      H2565   1.046       .  S
N2562      H2566   1.046       .  S
C2567      C2568   1.403       .  A
C2567      C2572   1.406       .  A
C2567      H2574   1.084       .  S
C2568      C2569   1.416       .  A
C2569      C2570   1.401       .  A
C2569      N2576   1.438       .  S
C2570      C2571   1.406       .  A
C2570      H2575   1.083       .  S
C2571      C2572   1.415       .  A
C2572      N2573   1.437       .  S
N2573      H2577   1.046       .  S
N2573      H2578   1.046       .  S
N2576      H2579   1.042       .  S
N2576      H2580   1.045       .  S
C2581      C2582   1.402       .  A
C2581      C2586   1.401       .  A
C2581      H2588   1.084       .  S
C2582      C2583   1.419       .  A
C2583      C2584   1.402   1_655  A
C2583      N2590   1.437       .  S
C2584      C2585   1.402       .  A
C2584      H2589   1.084       .  S
C2585      C2586   1.411   1_455  A
C2586      N2587   1.439       .  S
N2587      H2591   1.046       .  S
N2587      H2592   1.046       .  S
N2590      H2593   1.042       .  S
N2590      H2594   1.045   1_655  S
C2595      C2596   1.400       .  A
C2595      C2600   1.404       .  A
C2595      H2602   1.084       .  S
C2596      C2597   1.417       .  A
C2597      C2598   1.402       .  A
C2597      N2604   1.439       .  S
C2598      C2599   1.406       .  A
C2598      H2603   1.083       .  S
C2599      C2600   1.414       .  A
C2600      N2601   1.431       .  S
N2601      H2605   1.046       .  S
N2601      H2606   1.046       .  S
N2604      H2607   1.042       .  S
N2604      H2608   1.046       .  S
C2609      C2610   1.401       .  A
C2609      C2614   1.405       .  A
C2609      H2616   1.084       .  S
C2610      C2611   1.415       .  A
C2611      C2612   1.401       .  A
C2611      N2618   1.439       .  S
C2612      C2613   1.407       .  A
C2612      H2617   1.083       .  S
C2613      C2614   1.415       .  A
C2614      N2615   1.434       .  S
N2615      H2619   1.046       .  S
N2615      H2620   1.045       .  S
N2618      H2621   1.042       .  S
N2618      H2622   1.046       .  S
C2623      C2624   1.402       .  A
C2623      C2628   1.407       .  A
C2623      H2630   1.084       .  S
C2624      C2625   1.411       .  A
C2625      C2626   1.395       .  A
C2625      N2632   1.440       .  S
C2626      C2627   1.407       .  A
C2626      H2631   1.084       .  S
C2627      C2628   1.415       .  A
C2628      N2629   1.437       .  S
N2629      H2633   1.046       .  S
N2629      H2634   1.045       .  S
N2632      H2635   1.042       .  S
N2632      H2636   1.046       .  S
C2637      C2638   1.403       .  A
C2637      C2642   1.400       .  A
C2637      H2644   1.084       .  S
C2638      C2639   1.411       .  A
C2639      C2640   1.405       .  A
C2639      N2646   1.438       .  S
C2640      C2641   1.404       .  A
C2640      H2645   1.084       .  S
C2641      C2642   1.415       .  A
C2642      N2643   1.432       .  S
N2643      H2647   1.043       .  S
N2643      H2648   1.045       .  S
N2646      H2649   1.046       .  S
N2646      H2650   1.046       .  S
C2651      C2652   1.402       .  A
C2651      C2656   1.401       .  A
C2651      H2658   1.084       .  S
C2652      C2653   1.413       .  A
C2653      C2654   1.404       .  A
C2653      N2660   1.438       .  S
C2654      C2655   1.402       .  A
C2654      H2659   1.084       .  S
C2655      C2656   1.419       .  A
C2656      N2657   1.437       .  S
N2657      H2661   1.045       .  S
N2657      H2662   1.041       .  S
N2660      H2663   1.046       .  S
N2660      H2664   1.046       .  S
