geometry optimzed in LAMMPS
_audit_creation_date              2020-11-30 
_audit_creation_method            'lammps2cif' 
_symmetry_space_group_name_H-M    'P1' 
_symmetry_Int_Tables_number       1 
_symmetry_cell_setting            triclinic 
loop_ 
_symmetry_equiv_pos_as_xyz 
  x,y,z 
_cell_length_a                    60.345842 
_cell_length_b                    60.65564825882112 
_cell_length_c                    57.133068595366694 
_cell_angle_alpha                 89.66783399700385 
_cell_angle_beta                  90.1770839213523 
_cell_angle_gamma                 89.8838288137844 
loop_ 
_atom_site_label 
_atom_site_type_symbol 
_atom_site_fract_x 
_atom_site_fract_y 
_atom_site_fract_z 
_atom_site_charge 
O1          O  0.37664488  0.71702307  0.15188635    -0.56800
C2          C  0.43400280  0.75274573  0.14625447     0.75900
O3          O  0.38060247  0.78255131  0.11350316    -0.57900
C4          C  0.35660571  0.72058068  0.15737591     0.75800
C5          C  0.37823429  0.78043120  0.19187900     0.78200
Cd6        Cd  0.38620276  0.75669567  0.14846003     1.37500
O7          O  0.42214255  0.73570874  0.14902033    -0.56800
O8          O  0.39034956  0.76345914  0.19059538    -0.55600
C9          C  0.37457105  0.76720243  0.09991577     0.78200
O10         O  0.36985703  0.78733171  0.17275899    -0.58000
O11         O  0.42384474  0.77094692  0.14474648    -0.56400
O12         O  0.35063178  0.74052313  0.15904839    -0.56400
O13         O  0.37335302  0.74822301  0.10894785    -0.55600
O14         O  0.28906182  0.87625155  0.37876047    -0.56800
C15         C  0.27536854  0.80951954  0.37853366     0.75900
O16         O  0.34165093  0.82570815  0.35938107    -0.57900
C17         C  0.30585232  0.88849726  0.38147853     0.75800
C18         C  0.31873957  0.83566441  0.43270079     0.78200
Cd19       Cd  0.31010262  0.84136896  0.38307135     1.37500
O20         O  0.27129450  0.82983591  0.37536831    -0.56800
O21         O  0.30030447  0.84120646  0.42393641    -0.55600
C22         C  0.33325805  0.83181953  0.33996378     0.78200
O23         O  0.33455267  0.83267735  0.41839124    -0.58000
O24         O  0.29519062  0.80429572  0.38323536    -0.56400
O25         O  0.32430132  0.87895133  0.38474780    -0.56400
O26         O  0.31533891  0.84255920  0.34097689    -0.55600
O27         O  0.22877763  0.55018630  0.14752602    -0.56800
C28         C  0.24585919  0.61256895  0.15697551     0.75900
O29         O  0.18244453  0.59016354  0.11273645    -0.57900
C30         C  0.21163944  0.53857916  0.14423318     0.75800
C31         C  0.18423396  0.59386399  0.19055457     0.78200
Cd32       Cd  0.20810887  0.58564802  0.14742075     1.37500
O33         O  0.24832100  0.59245186  0.15161263    -0.56800
O34         O  0.19976869  0.57997694  0.18882669    -0.55600
C35         C  0.19750701  0.59720314  0.09921565     0.78200
O36         O  0.17849345  0.60370409  0.17181450    -0.58000
O37         O  0.22621102  0.61978369  0.15823203    -0.56400
O38         O  0.19336548  0.54870713  0.14257090    -0.56400
O39         O  0.21635013  0.60001090  0.10831034    -0.55600
O40         O  0.10023828  0.68110764  0.38289970    -0.56800
C41         C  0.16834362  0.69647273  0.38066880     0.75900
O42         O  0.14167653  0.67319847  0.42539018    -0.57900
C43         C  0.08922448  0.66444792  0.38966080     0.75800
C44         C  0.14193108  0.64027726  0.34119545     0.78200
Cd45       Cd  0.13629220  0.66210654  0.38569685     1.37500
O46         O  0.14776704  0.70058964  0.37890376    -0.56800
O47         O  0.13002420  0.65723230  0.34385906    -0.55600
C48         C  0.14397160  0.65437181  0.43466974     0.78200
O49         O  0.15104742  0.63238573  0.35953429    -0.58000
O50         O  0.17389933  0.67655604  0.38409580    -0.56400
O51         O  0.10001921  0.64710429  0.39455147    -0.56400
O52         O  0.14343946  0.63786628  0.42101549    -0.55600
O53         O  0.41987334  0.73876363  0.88529772    -0.56800
C54         C  0.35365102  0.72202473  0.88119858     0.75900
O55         O  0.37557442  0.78364538  0.92117006    -0.57900
C56         C  0.43123240  0.75599582  0.88875090     0.75800
C57         C  0.37630339  0.77916669  0.84293410     0.78200
Cd58       Cd  0.38380932  0.75779541  0.88774946     1.37500
O59         O  0.37406700  0.71832972  0.88497832    -0.56800
O60         O  0.38626246  0.76093319  0.84516138    -0.55600
C61         C  0.37315149  0.76813908  0.93597199     0.78200
O62         O  0.36980900  0.78827561  0.86170367    -0.58000
O63         O  0.34748634  0.74199169  0.88054656    -0.56400
O64         O  0.42067703  0.77370541  0.89217292    -0.56400
O65         O  0.37534410  0.74876227  0.92835731    -0.55600
O66         O  0.29183342  0.87172779  0.65357351    -0.56800
C67         C  0.27646404  0.80531516  0.65512612     0.75900
O68         O  0.33476881  0.82860533  0.61181183    -0.57900
C69         C  0.30866094  0.88348214  0.64909330     0.75800
C70         C  0.33543750  0.82625543  0.69093492     0.78200
Cd71       Cd  0.31146965  0.83628189  0.64811668     1.37500
O72         O  0.27223127  0.82580910  0.65553186    -0.56800
O73         O  0.31969774  0.83997346  0.68971105    -0.55600
C74         C  0.31806807  0.82966192  0.59821128     0.78200
O75         O  0.34153007  0.81762214  0.67177605    -0.58000
O76         O  0.29646577  0.79975349  0.65222541    -0.56400
O77         O  0.32645867  0.87341636  0.64418106    -0.56400
O78         O  0.29958715  0.83328752  0.60778541    -0.55600
O79         O  0.24701243  0.59336774  0.88019657    -0.56800
C80         C  0.21250167  0.53659312  0.89024240     0.75900
O81         O  0.18345857  0.58806145  0.92186569    -0.57900
C82         C  0.24305841  0.61368113  0.87669076     0.75800
C83         C  0.18332363  0.59181082  0.84347171     0.78200
Cd84       Cd  0.20781810  0.58377085  0.88638079     1.37500
O85         O  0.22929556  0.54857366  0.88628087    -0.56800
O86         O  0.19941181  0.57850517  0.84490724    -0.55600
C87         C  0.19906854  0.59480958  0.93490328     0.78200
O88         O  0.17729082  0.60090553  0.86238558    -0.58000
O89         O  0.19404494  0.54636870  0.89189839    -0.56400
O90         O  0.22298554  0.61975425  0.87707363    -0.56400
O91         O  0.21771585  0.59718793  0.92530318    -0.55600
O92         O  0.14551590  0.69961071  0.65485782    -0.56800
C93         C  0.08658320  0.66367309  0.64600834     0.75900
O94         O  0.13922728  0.67225747  0.60821703    -0.57900
C95         C  0.16609566  0.69564888  0.65293362     0.75800
C96         C  0.14212880  0.63862707  0.69198787     0.78200
Cd97       Cd  0.13407201  0.66116979  0.64819532     1.37500
O98         O  0.09801110  0.68052564  0.65105559    -0.56800
O99         O  0.14847101  0.62990621  0.67295628    -0.55600
C100        C  0.14178771  0.65338299  0.59940399     0.78200
O101        O  0.13202505  0.65682970  0.69033430    -0.58000
O102        O  0.09708100  0.64600272  0.64212233    -0.56400
O103        O  0.17171874  0.67580777  0.64944451    -0.56400
O104        O  0.14128814  0.63700297  0.61339116    -0.55600
O105        O  0.77172650  0.59308347  0.14950470    -0.56800
C106        C  0.80626165  0.53431911  0.14359439     0.75900
O107        O  0.83634815  0.58970228  0.11247531    -0.57900
C108        C  0.77635665  0.61324924  0.15260825     0.75800
C109        C  0.83325115  0.58671701  0.19116095     0.78200
Cd110      Cd  0.81079183  0.58136721  0.14659032     1.37500
O111        O  0.79017464  0.54620876  0.15018369    -0.56800
O112        O  0.81485493  0.57702114  0.18898445    -0.55600
C113        C  0.82037457  0.59186106  0.09807015     0.78200
O114        O  0.84213681  0.59379076  0.17242413    -0.58000
O115        O  0.82406083  0.54417250  0.13843954    -0.56400
O116        O  0.79668683  0.61833163  0.15347553    -0.56400
O117        O  0.80110782  0.58977958  0.10633556    -0.55600
O118        O  0.87662957  0.69231298  0.37961557    -0.56800
C119        C  0.93326805  0.65763218  0.39026629     0.75900
O120        O  0.88090909  0.62654917  0.41961872    -0.57900
C121        C  0.85608116  0.68873175  0.37684278     0.75800
C122        C  0.87906407  0.62984495  0.34176516     0.78200
Cd123      Cd  0.88600682  0.65280776  0.38547608     1.37500
O124        O  0.92131654  0.67359158  0.38332337    -0.56800
O125        O  0.89222379  0.64586433  0.34393442    -0.55600
C126        C  0.87439016  0.64161440  0.43332002     0.78200
O127        O  0.86967029  0.62312664  0.36031389    -0.58000
O128        O  0.92338126  0.63984527  0.39521298    -0.56400
O129        O  0.84978253  0.66886043  0.37785923    -0.56400
O130        O  0.87249455  0.66069569  0.42458578    -0.55600
O131        O  0.64741181  0.72175045  0.14653572    -0.56800
C132        C  0.59039484  0.75732250  0.13882017     0.75900
O133        O  0.65360607  0.79124388  0.16692878    -0.57900
C134        C  0.66805816  0.72508766  0.14859750     0.75800
C135        C  0.64975031  0.77056125  0.09384626     0.78200
Cd136      Cd  0.63799688  0.76109785  0.14176005     1.37500
O137        O  0.60247919  0.74060973  0.14274110    -0.56800
O138        O  0.64660019  0.75149338  0.10208992    -0.55600
C139        C  0.64629068  0.78290495  0.18582857     0.78200
O140        O  0.64771401  0.78653049  0.10797802    -0.58000
O141        O  0.60027256  0.77555030  0.13602495    -0.56400
O142        O  0.67451150  0.74492014  0.14815542    -0.56400
O143        O  0.63456241  0.76578558  0.18391650    -0.55600
O144        O  0.73260563  0.86910167  0.37592192    -0.56800
C145        C  0.74961680  0.80229467  0.37380841     0.75900
O146        O  0.69033634  0.82449552  0.41653097    -0.57900
C147        C  0.71550294  0.88057741  0.38011982     0.75800
C148        C  0.69046936  0.82369952  0.33823295     0.78200
Cd149      Cd  0.71397995  0.83301925  0.38102497     1.37500
O150        O  0.75357619  0.82282427  0.37460029    -0.56800
O151        O  0.70755548  0.83560802  0.33949936    -0.55600
C152        C  0.70696681  0.82453968  0.43024297     0.78200
O153        O  0.68288674  0.81621709  0.35743673    -0.58000
O154        O  0.72960158  0.79647030  0.37591062    -0.56400
O155        O  0.69796071  0.87014404  0.38503588    -0.56400
O156        O  0.72562734  0.82805455  0.42102289    -0.55600
O157        O  0.59873010  0.74201645  0.88072585    -0.56800
C158        C  0.66524772  0.72701941  0.87296750     0.75900
O159        O  0.64825273  0.79270432  0.85727825    -0.57900
C160        C  0.58730249  0.75881266  0.88601080     0.75800
C161        C  0.64665837  0.77082821  0.93035045     0.78200
Cd162      Cd  0.63454352  0.76181412  0.88241302     1.37500
O163        O  0.64508760  0.72293966  0.87744145    -0.56800
O164        O  0.64403485  0.75167931  0.92226934    -0.55600
C165        C  0.63957593  0.78508377  0.83871546     0.78200
O166        O  0.64410369  0.78676466  0.91607168    -0.58000
O167        O  0.67098558  0.74708443  0.87251025    -0.56400
O168        O  0.59773771  0.77649509  0.88986714    -0.56400
O169        O  0.62814215  0.76776894  0.84085447    -0.55600
O170        O  0.74787296  0.82328742  0.65017144    -0.56800
C171        C  0.71309242  0.88293866  0.64577101     0.75900
O172        O  0.68628043  0.82893223  0.60834530    -0.57900
C173        C  0.74306450  0.80296966  0.65152810     0.75800
C174        C  0.68439774  0.82720001  0.68732696     0.78200
Cd175      Cd  0.70918696  0.83569544  0.64475308     1.37500
O176        O  0.72920531  0.87071374  0.65188388    -0.56800
O177        O  0.70105625  0.83975334  0.68629406    -0.55600
C178        C  0.70310593  0.82986584  0.59500753     0.78200
O179        O  0.67796362  0.81882654  0.66811804    -0.58000
O180        O  0.69550435  0.87333021  0.63928300    -0.56400
O181        O  0.72276070  0.79797769  0.65007948    -0.56400
O182        O  0.72156032  0.83340692  0.60473243    -0.55600
O183        O  0.79044504  0.55045894  0.88202387    -0.56800
C184        C  0.77439665  0.61648798  0.87539464     0.75900
O185        O  0.83608118  0.59376806  0.91899975    -0.57900
C186        C  0.80748526  0.53897227  0.88670222     0.75800
C187        C  0.83329002  0.59122041  0.84059761     0.78200
Cd188      Cd  0.81027444  0.58603201  0.88443487     1.37500
O189        O  0.77071027  0.59626328  0.87954466    -0.56800
O190        O  0.81655376  0.57898328  0.84320558    -0.55600
C191        C  0.82007610  0.59480365  0.93335663     0.78200
O192        O  0.84038635  0.60101906  0.85874824    -0.58000
O193        O  0.79447696  0.62250657  0.87530595    -0.56400
O194        O  0.82540144  0.54924951  0.89020529    -0.56400
O195        O  0.80091159  0.59233332  0.92486057    -0.55600
O196        O  0.91845661  0.67702952  0.64713937    -0.56800
C197        C  0.85282621  0.69246620  0.65293201     0.75900
O198        O  0.87842039  0.62986217  0.61135939    -0.57900
C199        C  0.93034465  0.66034473  0.64262192     0.75800
C200        C  0.87609853  0.63370612  0.68898363     0.78200
Cd201      Cd  0.88291020  0.65647397  0.64504849     1.37500
O202        O  0.87310353  0.69610570  0.64849882    -0.56800
O203        O  0.88879224  0.65008441  0.68661382    -0.55600
C204        C  0.87210962  0.64475606  0.59714533     0.78200
O205        O  0.86670838  0.62672653  0.67054263    -0.58000
O206        O  0.84682372  0.67250238  0.65389204    -0.56400
O207        O  0.92030607  0.64242266  0.63889547    -0.56400
O208        O  0.87016330  0.66393486  0.60536333    -0.55600
O209        O  0.28663502  0.05595604  0.38426129    -0.56800
C210        C  0.27329474  0.12261483  0.38297907     0.75900
O211        O  0.33523526  0.09565602  0.42214435    -0.57900
C212        C  0.30357780  0.04389754  0.38740370     0.75800
C213        C  0.32915129  0.09948790  0.34296091     0.78200
Cd214      Cd  0.30824418  0.09110230  0.38800080     1.37500
O215        O  0.26910640  0.10251121  0.38729367    -0.56800
O216        O  0.31131696  0.08888278  0.34545600    -0.55600
C217        C  0.31993125  0.09979981  0.43670956     0.78200
O218        O  0.33851991  0.10598119  0.36166542    -0.58000
O219        O  0.29347101  0.12790354  0.38069890    -0.56400
O220        O  0.32168532  0.05368292  0.39131691    -0.56400
O221        O  0.30047006  0.10028452  0.42859086    -0.55600
O222        O  0.37532635  0.20428631  0.15145344    -0.56800
C223        C  0.42980119  0.16654350  0.14520493     0.75900
O224        O  0.36178764  0.13573925  0.17092708    -0.57900
C225        C  0.35527208  0.20156066  0.15731628     0.75800
C226        C  0.37032757  0.15536462  0.09824590     0.78200
Cd227      Cd  0.38221339  0.16401458  0.14675858     1.37500
O228        O  0.41825297  0.18339386  0.14991009    -0.56800
O229        O  0.37159580  0.17430541  0.10716447    -0.55600
C230        C  0.37258944  0.13975574  0.18952100     0.78200
O231        O  0.37390484  0.13921877  0.11198020    -0.58000
O232        O  0.41939912  0.14884860  0.14122228    -0.56400
O233        O  0.34826964  0.18194987  0.15824960    -0.56400
O234        O  0.38824731  0.15343948  0.18769356    -0.55600
O235        O  0.14384645  0.23009604  0.39256147    -0.56800
C236        C  0.08783152  0.26380399  0.39838234     0.75900
O237        O  0.13898489  0.29715648  0.42602220    -0.57900
C238        C  0.16387201  0.23318598  0.38672668     0.75800
C239        C  0.14038699  0.29288936  0.34921769     0.78200
Cd240      Cd  0.13478427  0.26980749  0.39335140     1.37500
O241        O  0.10013537  0.24754041  0.39352539    -0.56800
O242        O  0.12888238  0.27563463  0.35134697    -0.55600
C243        C  0.14895145  0.28368364  0.43943410     0.78200
O244        O  0.14901808  0.30036591  0.36780555    -0.58000
O245        O  0.09731110  0.28211917  0.40147431    -0.56400
O246        O  0.16995262  0.25291212  0.38340831    -0.56400
O247        O  0.15286545  0.26483198  0.43119940    -0.55600
O248        O  0.24831145  0.33008397  0.15565308    -0.56800
C249        C  0.21188470  0.38375186  0.14820414     0.75900
O250        O  0.18273587  0.33100596  0.11783959    -0.57900
C251        C  0.24617857  0.31068056  0.16367472     0.75800
C252        C  0.18458703  0.33156683  0.19677986     0.78200
Cd253      Cd  0.20816303  0.33707653  0.15290405     1.37500
O254        O  0.22874460  0.37202294  0.15276579    -0.56800
O255        O  0.20034822  0.34501383  0.19415347    -0.55600
C256        C  0.19805038  0.32398504  0.10463830     0.78200
O257        O  0.17866035  0.32093854  0.17870936    -0.58000
O258        O  0.19357013  0.37388817  0.14597844    -0.56400
O259        O  0.22664025  0.30393986  0.16735052    -0.56400
O260        O  0.21687183  0.32188752  0.11406250    -0.55600
O261        O  0.42417826  0.17997141  0.88088176    -0.56800
C262        C  0.35823096  0.19840158  0.87651610     0.75900
O263        O  0.37315995  0.13136074  0.86091134    -0.57900
C264        C  0.43514975  0.16330695  0.88771201     0.75800
C265        C  0.37599628  0.15395035  0.93401311     0.78200
Cd266      Cd  0.38766932  0.16226221  0.88551276     1.37500
O267        O  0.37854015  0.20193634  0.88091045    -0.56800
O268        O  0.38013920  0.17279287  0.92558839    -0.55600
C269        C  0.37954731  0.14019605  0.84187156     0.78200
O270        O  0.37675734  0.13789544  0.91983826    -0.58000
O271        O  0.35195634  0.17850121  0.87632278    -0.56400
O272        O  0.42421086  0.14633737  0.89338894    -0.56400
O273        O  0.39015810  0.15804722  0.84349116    -0.55600
O274        O  0.26907880  0.09648693  0.65136776    -0.56800
C275        C  0.30547327  0.03893675  0.64899603     0.75900
O276        O  0.33491870  0.09141687  0.61490553    -0.57900
C277        C  0.27299959  0.11638580  0.65672145     0.75800
C278        C  0.33136418  0.09425948  0.69306171     0.78200
Cd279      Cd  0.30885228  0.08609937  0.64944923     1.37500
O280        O  0.28847139  0.05073658  0.65254987    -0.56800
O281        O  0.31437016  0.08222413  0.69150040    -0.55600
C282        C  0.31930585  0.09681027  0.60105752     0.78200
O283        O  0.33899084  0.10212067  0.67407012    -0.58000
O284        O  0.32354408  0.04894028  0.64554723    -0.56400
O285        O  0.29314004  0.12180679  0.65901469    -0.56400
O286        O  0.30015363  0.09762018  0.60980128    -0.55600
O287        O  0.23036738  0.36976295  0.89402814    -0.56800
C288        C  0.24729468  0.30642920  0.88002152     0.75900
O289        O  0.18459789  0.32749566  0.92648250    -0.57900
C290        C  0.21311425  0.38119683  0.89762311     0.75800
C291        C  0.18670802  0.32884649  0.84721477     0.78200
Cd292      Cd  0.21007606  0.33399866  0.89168575     1.37500
O293        O  0.25004228  0.32666051  0.88477082    -0.56800
O294        O  0.20246056  0.34222253  0.85024258    -0.55600
C295        C  0.19988798  0.32043914  0.93987919     0.78200
O296        O  0.18042393  0.31820619  0.86522082    -0.58000
O297        O  0.22761763  0.29925032  0.88057025    -0.56400
O298        O  0.19497456  0.37084158  0.89877130    -0.56400
O299        O  0.21875877  0.31840579  0.93064530    -0.55600
O300        O  0.10235523  0.24753457  0.64942573    -0.56800
C301        C  0.16617762  0.22962055  0.65458550     0.75900
O302        O  0.14128323  0.29587898  0.61601297    -0.57900
C303        C  0.09059108  0.26398832  0.64351278     0.75800
C304        C  0.14410140  0.28859880  0.69420062     0.78200
Cd305      Cd  0.13807309  0.26780939  0.64872426     1.37500
O306        O  0.14607038  0.22751619  0.64842146    -0.56800
O307        O  0.13190051  0.27199889  0.69100666    -0.55600
C308        C  0.15073956  0.28277801  0.60200618     0.78200
O309        O  0.15339033  0.29652449  0.67611571    -0.58000
O310        O  0.17301737  0.24908044  0.65793239    -0.56400
O311        O  0.10072796  0.28185974  0.63973598    -0.56400
O312        O  0.15547695  0.26392644  0.61005628    -0.55600
O313        O  0.78826603  0.36796691  0.14999482    -0.56800
C314        C  0.77012113  0.30225424  0.15406247     0.75900
O315        O  0.83050292  0.32328560  0.11135375    -0.57900
C316        C  0.80517244  0.37884801  0.14369747     0.75800
C317        C  0.82856764  0.32341394  0.19038315     0.78200
Cd318      Cd  0.80633154  0.33162580  0.14639317     1.37500
O319        O  0.76645154  0.32260669  0.15039032    -0.56800
O320        O  0.81313325  0.33732353  0.18784353    -0.55600
C321        C  0.81395392  0.32114096  0.09773178     0.78200
O322        O  0.83518112  0.31372662  0.17199016    -0.58000
O323        O  0.79015899  0.29613681  0.15500666    -0.56400
O324        O  0.82239081  0.36791009  0.13866078    -0.56400
O325        O  0.79503335  0.32306637  0.10687322    -0.55600
O326        O  0.92042186  0.24455224  0.38537054    -0.56800
C327        C  0.85547656  0.22683757  0.38144081     0.75900
O328        O  0.87863872  0.29252211  0.41954068    -0.57900
C329        C  0.93194056  0.26125618  0.39058496     0.75800
C330        C  0.87483788  0.28600244  0.34362748     0.78200
Cd331      Cd  0.88422345  0.26426845  0.38783172     1.37500
O332        O  0.87597558  0.22400910  0.38550348    -0.56800
O333        O  0.88677000  0.26897606  0.34558753    -0.55600
C334        C  0.87283735  0.27849212  0.43484450     0.78200
O335        O  0.86766239  0.29423059  0.36251234    -0.58000
O336        O  0.84861441  0.24655707  0.38064925    -0.56400
O337        O  0.92149803  0.27892082  0.39447761    -0.56400
O338        O  0.87178745  0.25868185  0.42821733    -0.55600
O339        O  0.64233723  0.19391404  0.15128081    -0.56800
C340        C  0.58592200  0.16069213  0.14581025     0.75900
O341        O  0.63559236  0.12851754  0.11434122    -0.57900
C342        C  0.66226961  0.19047341  0.15743385     0.75800
C343        C  0.64021925  0.13019975  0.19230056     0.78200
Cd344      Cd  0.63302176  0.15427049  0.14906920     1.37500
O345        O  0.59833126  0.17649863  0.15186722    -0.56800
O346        O  0.62648806  0.14584048  0.19047818    -0.55600
C347        C  0.64550535  0.14240212  0.10144907     0.78200
O348        O  0.64981172  0.12429222  0.17362545    -0.58000
O349        O  0.59534150  0.14263229  0.14104210    -0.56400
O350        O  0.66813896  0.17060086  0.16034976    -0.56400
O351        O  0.65023951  0.16057740  0.11083777    -0.55600
O352        O  0.75280767  0.09422761  0.38040227    -0.56800
C353        C  0.71582409  0.03610991  0.38460491     0.75900
O354        O  0.68963024  0.09008084  0.42212663    -0.57900
C355        C  0.74829232  0.11462822  0.37885248     0.75800
C356        C  0.69028826  0.09165851  0.34323838     0.78200
Cd357      Cd  0.71376570  0.08324067  0.38633851     1.37500
O358        O  0.73300366  0.04748692  0.38049790    -0.56800
O359        O  0.70847788  0.08138268  0.34443516    -0.55600
C360        C  0.70611035  0.08985853  0.43603967     0.78200
O361        O  0.68202912  0.09815789  0.36246764    -0.58000
O362        O  0.69835259  0.04653081  0.38977332    -0.56400
O363        O  0.72811126  0.12013480  0.38060411    -0.56400
O364        O  0.72493612  0.08726888  0.42681293    -0.55600
O365        O  0.77074461  0.32647599  0.88032725    -0.56800
C366        C  0.80733842  0.38375195  0.88531365     0.75900
O367        O  0.83389542  0.32703807  0.91952762    -0.57900
C368        C  0.77480057  0.30616083  0.87734589     0.66200
C369        C  0.83283591  0.32747238  0.84075625     0.78200
Cd370      Cd  0.81018395  0.33658658  0.88424065     1.37500
O371        O  0.79079465  0.37217901  0.87946604    -0.56800
O372        O  0.81441265  0.33732747  0.84201957    -0.55600
C373        C  0.81734752  0.32692894  0.93325353     0.78200
O374        O  0.84201124  0.32221995  0.86007877    -0.58000
O375        O  0.82509257  0.37356280  0.89019132    -0.56400
O376        O  0.79495433  0.30031178  0.87728484    -0.56400
O377        O  0.79866178  0.33086613  0.92416242    -0.55600
O378        O  0.87837583  0.22576234  0.64834604    -0.56800
C379        C  0.93446648  0.26261840  0.63996597     0.75900
O380        O  0.88134032  0.29367604  0.61187030    -0.57900
C381        C  0.85761853  0.22898226  0.64956454     0.75800
C382        C  0.87944496  0.28754779  0.68899889     0.78200
Cd383      Cd  0.88718020  0.26579706  0.64454249     1.37500
O384        O  0.92317434  0.24580813  0.64555775    -0.56800
O385        O  0.89179893  0.27084272  0.68702206    -0.55600
C386        C  0.87517100  0.27923745  0.59727309     0.78200
O387        O  0.87105833  0.29510482  0.67019873    -0.58000
O388        O  0.92390650  0.28035341  0.63647221    -0.56400
O389        O  0.85103978  0.24879400  0.64887421    -0.56400
O390        O  0.87435267  0.25961413  0.60471620    -0.55600
O391        O  0.60356134  0.17855938  0.88552492    -0.56800
C392        C  0.66685842  0.19484230  0.88196037     0.75900
O393        O  0.63990059  0.13075674  0.92362075    -0.57900
C394        C  0.59130293  0.16217265  0.89006704     0.75800
C395        C  0.64804409  0.13429179  0.84667119     0.78200
Cd396      Cd  0.63875638  0.15738326  0.88952499     1.37500
O397        O  0.64666866  0.19749015  0.88743165    -0.56800
O398        O  0.63561183  0.15097703  0.84788932    -0.55600
C399        C  0.64891286  0.14421753  0.93757018     0.78200
O400        O  0.65594075  0.12700867  0.86582283    -0.58000
O401        O  0.67367977  0.17518931  0.87999409    -0.56400
O402        O  0.60095182  0.14409602  0.89438896    -0.56400
O403        O  0.65414836  0.16272354  0.92903018    -0.55600
O404        O  0.73483016  0.04998027  0.65650404    -0.56800
C405        C  0.74893331  0.11782761  0.65664416     0.75900
O406        O  0.68964946  0.09178691  0.61612194    -0.57900
C407        C  0.71796840  0.03841695  0.65155997     0.75800
C408        C  0.69330146  0.09399493  0.69521604     0.78200
Cd409      Cd  0.71489483  0.08557303  0.65136123     1.37500
O410        O  0.75376165  0.09746876  0.65586422    -0.56800
O411        O  0.71030910  0.08197732  0.69332035    -0.55600
C412        C  0.70578296  0.09144881  0.60184120     0.78200
O413        O  0.68507337  0.10173730  0.67635350    -0.58000
O414        O  0.72860910  0.12292828  0.65542827    -0.56400
O415        O  0.70014519  0.04867161  0.64710220    -0.56400
O416        O  0.72488448  0.08926890  0.61067582    -0.55600
C417        C  0.65462001  0.12228017  0.78616969     0.21400
C418        C  0.65171645  0.12595529  0.76209364    -0.38500
C419        C  0.66549165  0.11367993  0.74739703     0.20400
C420        C  0.68106948  0.09896926  0.75609537     0.23000
C421        C  0.68402006  0.09530976  0.78023371    -0.39000
C422        C  0.67011654  0.10752542  0.79496259     0.21800
N423        N  0.64429673  0.13275737  0.80360618    -0.32300
C424        C  0.65325414  0.12478479  0.82372483    -0.09800
C425        C  0.66935649  0.10884150  0.81911788    -0.28600
N426        N  0.69256196  0.08989097  0.73852434    -0.45200
C427        C  0.68420594  0.09879842  0.71850789    -0.04500
C428        C  0.66727556  0.11374706  0.72331524    -0.21900
H429        H  0.63983172  0.13778234  0.75532699     0.19900
H430        H  0.69645491  0.08406820  0.78702569     0.18700
H431        H  0.67979789  0.10023609  0.83162348     0.15000
H432        H  0.65793542  0.12368055  0.71094698     0.14900
H433        H  0.63244843  0.14523685  0.80188639     0.33000
H434        H  0.70556040  0.07856989  0.74007044     0.35800
C435        C  0.81003865  0.19451189  0.65417499     0.21400
C436        C  0.78736453  0.18985842  0.65565637    -0.38500
C437        C  0.78187805  0.16750237  0.65719072     0.20400
C438        C  0.79773915  0.15097452  0.65718556     0.23000
C439        C  0.82049296  0.15564864  0.65559882    -0.39000
C440        C  0.82602192  0.17810223  0.65411573     0.21800
N441        N  0.81939300  0.21447515  0.65257486    -0.32300
C442        C  0.84152455  0.21090419  0.65152267    -0.09800
C443        C  0.84637966  0.18838734  0.65235199    -0.28600
N444        N  0.78808109  0.13101908  0.65790997    -0.45200
C445        C  0.76596611  0.13498938  0.65819366    -0.04500
C446        C  0.76146986  0.15752593  0.65794342    -0.21900
H447        H  0.77489461  0.20271398  0.65544348     0.19900
H448        H  0.83292960  0.14277216  0.65536154     0.18700
H449        H  0.86253543  0.18063549  0.65175660     0.15000
H450        H  0.74540946  0.16550598  0.65747041     0.14900
H451        H  0.81118969  0.22965664  0.65221752     0.33000
H452        H  0.79598124  0.11569410  0.65745216     0.35800
C453        C  0.72534892  0.27395229  0.87653795     0.21400
C454        C  0.70299682  0.26883743  0.88087248    -0.38500
C455        C  0.69723015  0.24651014  0.87840938     0.20400
C456        C  0.71260872  0.23066868  0.87207583     0.23000
C457        C  0.73483823  0.23575563  0.86782892    -0.39000
C458        C  0.74057656  0.25792102  0.87035514     0.21800
N459        N  0.73540804  0.29360103  0.87892660    -0.32300
C460        C  0.75715221  0.28980812  0.87448560    -0.09800
C461        C  0.76095920  0.26781970  0.86894687    -0.28600
N462        N  0.70345559  0.21056973  0.87194404    -0.45200
C463        C  0.68208179  0.21343196  0.87836476    -0.04500
C464        C  0.67744820  0.23566625  0.88242717    -0.21900
H465        H  0.69113979  0.28119308  0.88629511     0.19900
H466        H  0.74692721  0.22324129  0.86346411     0.18700
H467        H  0.77668514  0.25996538  0.86527874     0.15000
H468        H  0.66198546  0.24278429  0.88829310     0.14900
H469        H  0.72814826  0.30840332  0.88418435     0.33000
H470        H  0.71145581  0.19569547  0.86833723     0.35800
C471        C  0.84520042  0.32109554  0.77994377     0.21400
C472        C  0.84167910  0.32386440  0.75579510    -0.38500
C473        C  0.85668802  0.31299093  0.74113376     0.20400
C474        C  0.87373234  0.30004018  0.74989087     0.23000
C475        C  0.87731578  0.29731476  0.77412778    -0.39000
C476        C  0.86243191  0.30847910  0.78884592     0.21800
N477        N  0.83292857  0.32944455  0.79732700    -0.32300
C478        C  0.84237223  0.32237852  0.81759548    -0.09800
C479        C  0.86089137  0.30918938  0.81306007    -0.28600
N480        N  0.88468077  0.29020547  0.73230133    -0.45200
C481        C  0.87454810  0.29693977  0.71222145    -0.04500
C482        C  0.85716615  0.31139391  0.71703106    -0.21900
H483        H  0.82801980  0.33354202  0.74892303     0.19900
H484        H  0.89050722  0.28701332  0.78099772     0.18700
H485        H  0.87147694  0.30092692  0.82568578     0.15000
H486        H  0.84560908  0.31866729  0.70467532     0.14900
H487        H  0.81876728  0.33926098  0.79549045     0.33000
H488        H  0.89767212  0.27889475  0.73389991     0.35800
C489        C  0.71387350  0.09448382  0.53999991     0.21400
C490        C  0.72672108  0.09534610  0.51970048    -0.38500
C491        C  0.71510148  0.09428136  0.49856105     0.20400
C492        C  0.69228752  0.09239253  0.49740740     0.23000
C493        C  0.67927568  0.09141237  0.51796854    -0.39000
C494        C  0.69102852  0.09261383  0.53940944     0.21800
N495        N  0.72141697  0.09479223  0.56206391    -0.32300
C496        C  0.70344647  0.09314587  0.57608516    -0.09800
C497        C  0.68401923  0.09178221  0.56261842    -0.28600
N498        N  0.68559050  0.09116141  0.47480032    -0.45200
C499        C  0.70443091  0.09221265  0.46178047    -0.04500
C500        C  0.72301330  0.09419316  0.47610075    -0.21900
H501        H  0.74460524  0.09657442  0.52033275     0.19900
H502        H  0.66143760  0.08969237  0.51733721     0.18700
H503        H  0.66722818  0.08986947  0.56889318     0.15000
H504        H  0.74019185  0.09497139  0.47076132     0.14900
H505        H  0.73797771  0.09571269  0.56728113     0.33000
H506        H  0.66938318  0.08918521  0.46866701     0.35800
C507        C  0.64752435  0.12746275  0.04078279     0.21400
C508        C  0.64006759  0.11749201  0.01995923    -0.38500
C509        C  0.64757053  0.12712934  0.99891164     0.20400
C510        C  0.66137496  0.14532614  0.99875905     0.23000
C511        C  0.66886344  0.15518430  0.01946068    -0.39000
C512        C  0.66140664  0.14559286  0.04037099     0.21800
N513        N  0.64111855  0.12293025  0.06291893    -0.32300
C514        C  0.65081498  0.13847786  0.07655172    -0.09800
C515        C  0.66374410  0.15270933  0.06307199    -0.28600
N516        N  0.66444903  0.15277794  0.97682882    -0.45200
C517        C  0.65254932  0.13936802  0.96268991    -0.04500
C518        C  0.64193277  0.12296015  0.97580258    -0.21900
H519        H  0.62853453  0.10385161  0.02011735     0.19900
H520        H  0.67896520  0.16991131  0.01928394     0.18700
H521        H  0.67246934  0.16726101  0.06891587     0.15000
H522        H  0.63042344  0.11068018  0.96948115     0.14900
H523        H  0.62972065  0.11097020  0.06820720     0.33000
H524        H  0.67322202  0.16688143  0.97187914     0.35800
C525        C  0.67584475  0.09599083  0.28273888     0.21400
C526        C  0.67899428  0.09326579  0.25859814    -0.38500
C527        C  0.66370623  0.10413606  0.24404738     0.20400
C528        C  0.64664486  0.11684745  0.25291508     0.23000
C529        C  0.64345349  0.11952350  0.27711484    -0.39000
C530        C  0.65872019  0.10855480  0.29170210     0.21800
N531        N  0.68876915  0.08818183  0.30004069    -0.32300
C532        C  0.67990390  0.09575146  0.32024956    -0.09800
C533        C  0.66104110  0.10848622  0.31581508    -0.28600
N534        N  0.63541108  0.12676875  0.23544618    -0.45200
C535        C  0.64538834  0.12038431  0.21532757    -0.04500
C536        C  0.66302265  0.10611133  0.21997678    -0.21900
H537        H  0.69269857  0.08383141  0.25165343     0.19900
H538        H  0.63040021  0.12983880  0.28404444     0.18700
H539        H  0.65085480  0.11704712  0.32841165     0.15000
H540        H  0.67459250  0.09922198  0.20755068     0.14900
H541        H  0.70307816  0.07866299  0.29816939     0.33000
H542        H  0.62239956  0.13803970  0.23716500     0.35800
C543        C  0.87124881  0.29665131  0.53725252     0.21400
C544        C  0.87825487  0.30718526  0.51643835    -0.38500
C545        C  0.87116528  0.29741570  0.49531518     0.20400
C546        C  0.85808638  0.27868295  0.49517174     0.23000
C547        C  0.85096375  0.26841032  0.51578291    -0.39000
C548        C  0.85810656  0.27798828  0.53666485     0.21800
N549        N  0.87791347  0.30071084  0.55943043    -0.32300
C550        C  0.86917279  0.28423449  0.57272785    -0.09800
C551        C  0.85659067  0.26999037  0.55910714    -0.28600
N552        N  0.85597845  0.27072343  0.47343904    -0.45200
C553        C  0.86779743  0.28425661  0.45933858    -0.04500
C554        C  0.87726563  0.30141941  0.47225020    -0.21900
H555        H  0.88944368  0.32110766  0.51665465     0.19900
H556        H  0.84169880  0.25315000  0.51556249     0.18700
H557        H  0.84876184  0.25479597  0.56464413     0.15000
H558        H  0.88870810  0.31382458  0.46599194     0.14900
H559        H  0.88906556  0.31282241  0.56486453     0.33000
H560        H  0.84815879  0.25605534  0.46869547     0.35800
C561        C  0.80914475  0.19128081  0.37306318     0.21400
C562        C  0.78663695  0.18620559  0.37067670    -0.38500
C563        C  0.78132801  0.16380952  0.37203804     0.20400
C564        C  0.79719874  0.14757099  0.37540198     0.23000
C565        C  0.81983194  0.15265750  0.37769818    -0.39000
C566        C  0.82517244  0.17519390  0.37644179     0.21800
N567        N  0.81810473  0.21146589  0.37387271    -0.32300
C568        C  0.84001431  0.20839003  0.37794350    -0.09800
C569        C  0.84515910  0.18595112  0.37946398    -0.28600
N570        N  0.78756886  0.12765479  0.37745050    -0.45200
C571        C  0.76546984  0.13144148  0.37555959    -0.04500
C572        C  0.76098179  0.15373140  0.37202120    -0.21900
H573        H  0.77408047  0.19884696  0.36863407     0.19900
H574        H  0.83224806  0.14009036  0.38091398     0.18700
H575        H  0.86115557  0.17857032  0.38309073     0.15000
H576        H  0.74491680  0.16160116  0.37054384     0.14900
H577        H  0.80968711  0.22647880  0.37243329     0.33000
H578        H  0.79542726  0.11260791  0.38083077     0.35800
C579        C  0.80761495  0.31760068  0.99403804     0.21400
C580        C  0.79438358  0.31530293  0.01396639    -0.38500
C581        C  0.80566307  0.31507687  0.03537710     0.20400
C582        C  0.82846060  0.31705598  0.03701107     0.23000
C583        C  0.84180331  0.31919518  0.01689303    -0.39000
C584        C  0.83045398  0.31935904  0.99527901     0.21800
N585        N  0.80053265  0.31959368  0.97189332    -0.32300
C586        C  0.81885265  0.32257178  0.95862939    -0.09800
C587        C  0.83797136  0.32241608  0.97254737    -0.28600
N588        N  0.83478905  0.31832461  0.05965612    -0.45200
C589        C  0.81579536  0.31727578  0.07231470    -0.04500
C590        C  0.79740013  0.31500520  0.05772330    -0.21900
H591        H  0.77648729  0.31449950  0.01290756     0.19900
H592        H  0.85957966  0.32127557  0.01801566     0.18700
H593        H  0.85487857  0.32504560  0.96694689     0.15000
H594        H  0.78011840  0.31471552  0.06275315     0.14900
H595        H  0.78406336  0.31945766  0.96618538     0.33000
H596        H  0.85081950  0.32090931  0.06601543     0.35800
C597        C  0.73652764  0.25448829  0.16082254     0.21400
C598        C  0.73236545  0.23203749  0.16444051    -0.38500
C599        C  0.71013296  0.22572211  0.16299748     0.20400
C600        C  0.69327525  0.24055814  0.15802508     0.23000
C601        C  0.69746849  0.26310892  0.15432025    -0.39000
C602        C  0.71978336  0.26951079  0.15604633     0.21800
N603        N  0.75631836  0.26443688  0.16107808    -0.32300
C604        C  0.75228645  0.28600717  0.15656201    -0.09800
C605        C  0.72967028  0.28989911  0.15328957    -0.28600
N606        N  0.67371152  0.23005804  0.15637773    -0.45200
C607        C  0.67830549  0.20843981  0.16026487    -0.04500
C608        C  0.70078440  0.20515143  0.16467172    -0.21900
H609        H  0.74552513  0.22029825  0.16790082     0.19900
H610        H  0.68438585  0.27473915  0.15019082     0.18700
H611        H  0.72164771  0.30539482  0.14904788     0.15000
H612        H  0.70929600  0.18964366  0.16758670     0.14900
H613        H  0.77170840  0.25693438  0.16389260     0.33000
H614        H  0.65839377  0.23700449  0.15202891     0.35800
C615        C  0.84095813  0.31921603  0.25155134     0.21400
C616        C  0.83839043  0.32360805  0.27556495    -0.38500
C617        C  0.85220064  0.31149616  0.29078243     0.20400
C618        C  0.86726559  0.29617740  0.28254734     0.23000
C619        C  0.86969932  0.29169749  0.25861081    -0.39000
C620        C  0.85599627  0.30382699  0.24342908     0.21800
N621        N  0.82969104  0.32828721  0.23360400    -0.32300
C622        C  0.83758429  0.31866345  0.21390808    -0.09800
C623        C  0.85399038  0.30321515  0.21933314    -0.28600
N624        N  0.87774667  0.28611413  0.30037702    -0.45200
C625        C  0.86932102  0.29486309  0.32023314    -0.04500
C626        C  0.85338549  0.31093062  0.31500962    -0.21900
H627        H  0.82636727  0.33539463  0.28191680     0.19900
H628        H  0.88126735  0.27945513  0.25230057     0.18700
H629        H  0.86297718  0.29275526  0.20735003     0.15000
H630        H  0.84334185  0.32014681  0.32721232     0.14900
H631        H  0.81713257  0.34012543  0.23470673     0.33000
H632        H  0.88939167  0.27341917  0.29911597     0.35800
C633        C  0.03248364  0.27220731  0.63466855     0.21400
C634        C  0.01310902  0.28400976  0.62922173    -0.38500
C635        C  0.99317879  0.27263947  0.63273475     0.20400
C636        C  0.99255110  0.25112498  0.64094885     0.23000
C637        C  0.01195494  0.23926414  0.64621569    -0.39000
C638        C  0.03191584  0.25065667  0.64276535     0.21800
N639        N  0.05343479  0.27960173  0.63376742    -0.32300
C640        C  0.06632869  0.26261976  0.64124774    -0.09800
C641        C  0.05351714  0.24426548  0.64698889    -0.28600
N642        N  0.97149602  0.24447435  0.64400084    -0.45200
C643        C  0.95870565  0.26196448  0.63780241    -0.04500
C644        C  0.97161196  0.27975613  0.63053987    -0.21900
H645        H  0.01349837  0.30096755  0.62322774     0.19900
H646        H  0.01152982  0.22257449  0.65299637     0.18700
H647        H  0.05921257  0.22853903  0.65375495     0.15000
H648        H  0.96596723  0.29596027  0.62513466     0.14900
H649        H  0.05862871  0.29531905  0.62862899     0.33000
H650        H  0.96619420  0.22929975  0.65059118     0.35800
C651        C  0.15871289  0.31133871  0.79487802     0.21400
C652        C  0.14500062  0.29798739  0.78094031    -0.38500
C653        C  0.14734337  0.30055572  0.75656560     0.20400
C654        C  0.16216970  0.31532958  0.74678538     0.23000
C655        C  0.17584552  0.32867189  0.76070517    -0.39000
C656        C  0.17352124  0.32609467  0.78504575     0.21800
N657        N  0.16076727  0.31099391  0.81840493    -0.32300
C658        C  0.17706765  0.32557811  0.82358984    -0.09800
C659        C  0.18528319  0.33539492  0.80320231    -0.28600
N660        N  0.16227976  0.31366086  0.72327108    -0.45200
C661        C  0.14755167  0.29757501  0.71797613    -0.04500
C662        C  0.13779138  0.28913217  0.73830389    -0.21900
H663        H  0.13381531  0.28599619  0.78850528     0.19900
H664        H  0.18790189  0.33978653  0.75313418     0.18700
H665        H  0.19882139  0.34700090  0.80178233     0.15000
H666        H  0.12602745  0.27573523  0.73960175     0.14900
H667        H  0.15222557  0.30083914  0.83013201     0.33000
H668        H  0.17242773  0.32228111  0.71161327     0.35800
C669        C  0.21114012  0.19239188  0.66478463     0.21400
C670        C  0.23314191  0.18663205  0.66974237    -0.38500
C671        C  0.23876043  0.16456207  0.66592498     0.20400
C672        C  0.22360989  0.14919439  0.65798334     0.23000
C673        C  0.20142759  0.15493752  0.65317752    -0.39000
C674        C  0.19581713  0.17719937  0.65681165     0.21800
N675        N  0.20230106  0.21268797  0.66540840    -0.32300
C676        C  0.18116749  0.21060562  0.65770883    -0.09800
C677        C  0.17639452  0.18866402  0.65231146    -0.28600
N678        N  0.23364054  0.12963809  0.65435887    -0.45200
C679        C  0.25529610  0.13280442  0.65988492    -0.04500
C680        C  0.25904229  0.15431538  0.66726610    -0.21900
H681        H  0.24523459  0.19866459  0.67535818     0.19900
H682        H  0.18964220  0.14315837  0.64636269     0.18700
H683        H  0.16109773  0.18215622  0.64526009     0.15000
H684        H  0.27470579  0.16170513  0.67208997     0.14900
H685        H  0.21036954  0.22720272  0.67017327     0.33000
H686        H  0.22642940  0.11534125  0.64769898     0.35800
C687        C  0.49323073  0.17425362  0.88587240     0.21400
C688        C  0.51264222  0.18622183  0.88117508    -0.38500
C689        C  0.53261274  0.17517848  0.88607232     0.20400
C690        C  0.53308200  0.15384750  0.89483908     0.23000
C691        C  0.51373538  0.14196599  0.89963513    -0.39000
C692        C  0.49384676  0.15300033  0.89483262     0.21800
N693        N  0.47218139  0.18078085  0.88231164    -0.32300
C694        C  0.45942600  0.16351297  0.88905901    -0.09800
C695        C  0.47232392  0.14593450  0.89704427    -0.28600
N696        N  0.55399052  0.14676296  0.89744169    -0.45200
C697        C  0.56702617  0.16366660  0.89040461    -0.04500
C698        C  0.55434044  0.18177081  0.88323643    -0.21900
H699        H  0.51222462  0.20279250  0.87405647     0.19900
H700        H  0.51415059  0.12526044  0.90639401     0.18700
H701        H  0.46670491  0.13004332  0.90334994     0.15000
H702        H  0.56019954  0.19742337  0.87652516     0.14900
H703        H  0.46683649  0.19589364  0.87550544     0.33000
H704        H  0.55909700  0.13127223  0.90350766     0.35800
C705        C  0.32659676  0.24819259  0.87337364     0.21400
C706        C  0.32138409  0.27031994  0.87808528    -0.38500
C707        C  0.29915970  0.27643263  0.87441600     0.20400
C708        C  0.28338744  0.26158677  0.86667592     0.23000
C709        C  0.28861698  0.23955993  0.86181522    -0.39000
C710        C  0.31075583  0.23347033  0.86553404     0.21800
N711        N  0.34600974  0.23780970  0.87732194    -0.32300
C712        C  0.34229961  0.21632321  0.87218963    -0.09800
C713        C  0.32060427  0.21304301  0.86458969    -0.28600
N714        N  0.26313740  0.27078128  0.86672385    -0.45200
C715        C  0.26592311  0.29161652  0.87461977    -0.04500
C716        C  0.28821557  0.29588551  0.87931269    -0.21900
H717        H  0.33351389  0.28169322  0.88499913     0.19900
H718        H  0.27615053  0.22777911  0.85650397     0.18700
H719        H  0.31279287  0.19757456  0.86010541     0.15000
H720        H  0.29522820  0.31069562  0.88674288     0.14900
H721        H  0.36046050  0.24464910  0.88419078     0.33000
H722        H  0.24817270  0.26301996  0.86265051     0.35800
C723        C  0.35923837  0.11196418  0.79139571     0.21400
C724        C  0.34608260  0.09716739  0.77867743    -0.38500
C725        C  0.34639425  0.09987210  0.75424998     0.20400
C726        C  0.35886209  0.11604435  0.74330236     0.23000
C727        C  0.37187467  0.13091955  0.75601373    -0.39000
C728        C  0.37157465  0.12820690  0.78040340     0.21800
N729        N  0.36107281  0.11351625  0.81482065    -0.32300
C730        C  0.37458857  0.13094635  0.81868770    -0.09800
C731        C  0.38150082  0.14045401  0.79765286    -0.28600
N732        N  0.35576174  0.11563665  0.71999282    -0.45200
C733        C  0.34110677  0.09917814  0.71607568    -0.04500
C734        C  0.33488089  0.08896902  0.73700779    -0.21900
H735        H  0.33604411  0.08472909  0.78718093     0.19900
H736        H  0.38125127  0.14389424  0.74756216     0.18700
H737        H  0.39176991  0.15490985  0.79532429     0.15000
H738        H  0.32304555  0.07575575  0.73933122     0.14900
H739        H  0.35303309  0.10384226  0.82736982     0.33000
H740        H  0.36258995  0.12637647  0.70759731     0.35800
C741        C  0.20367557  0.31032664  0.04389551     0.21400
C742        C  0.21539467  0.30396382  0.02379500    -0.38500
C743        C  0.20506587  0.30854902  0.00222781     0.20400
C744        C  0.18453909  0.31866204  0.00069595     0.23000
C745        C  0.17279589  0.32505683  0.02088875    -0.39000
C746        C  0.18316024  0.32048069  0.04255587     0.21800
N747        N  0.21084219  0.30939756  0.06620676    -0.32300
C748        C  0.19491014  0.31905650  0.07940369    -0.09800
C749        C  0.17724056  0.32605817  0.06524763    -0.28600
N750        N  0.17925266  0.32288204  0.97810452    -0.45200
C751        C  0.19666841  0.31566346  0.96518539    -0.04500
C752        C  0.21296338  0.30645619  0.97969665    -0.21900
H753        H  0.23179085  0.29674764  0.02484924     0.19900
H754        H  0.15712001  0.33370144  0.01978699     0.18700
H755        H  0.16271875  0.33519759  0.07061710     0.15000
H756        H  0.22909363  0.30036736  0.97455192     0.14900
H757        H  0.22615502  0.30342632  0.07200024     0.33000
H758        H  0.16532490  0.33142811  0.97197854     0.35800
C759        C  0.03030250  0.25067732  0.39424559     0.21400
C760        C  0.01141678  0.23857995  0.38781716    -0.38500
C761        C  0.99103435  0.24948218  0.39065094     0.20400
C762        C  0.98968438  0.27081439  0.39904709     0.23000
C763        C  0.00848961  0.28286727  0.40541332    -0.39000
C764        C  0.02875411  0.27196076  0.40272787     0.21800
N765        N  0.05166814  0.24447315  0.39249638    -0.32300
C766        C  0.06362643  0.26208042  0.39979274    -0.09800
C767        C  0.04991618  0.27941040  0.40643792    -0.28600
N768        N  0.96854952  0.27760649  0.39993020    -0.45200
C769        C  0.95623992  0.26047474  0.39219267    -0.04500
C770        C  0.96964101  0.24259960  0.38619959    -0.21900
H771        H  0.01250893  0.22200971  0.38098702     0.19900
H772        H  0.00743501  0.29960115  0.41180570     0.18700
H773        H  0.05482526  0.29561558  0.41233491     0.15000
H774        H  0.96443959  0.22678901  0.37946356     0.14900
H775        H  0.05771732  0.22962497  0.38594226     0.33000
H776        H  0.96283311  0.29295343  0.40556162     0.35800
C777        C  0.16531315  0.28293844  0.54151487     0.21400
C778        C  0.17349310  0.27331442  0.52104004    -0.38500
C779        C  0.16604975  0.28266385  0.49997611     0.20400
C780        C  0.15151967  0.30034691  0.49920470     0.23000
C781        C  0.14329302  0.31002519  0.51979445    -0.39000
C782        C  0.15080332  0.30064418  0.54100551     0.21800
N783        N  0.16811614  0.27545422  0.56347358    -0.32300
C784        C  0.15531619  0.28831746  0.57726918    -0.09800
C785        C  0.14439785  0.30443826  0.56391313    -0.28600
N786        N  0.14494771  0.30435833  0.47700012    -0.45200
C787        C  0.15507812  0.28882440  0.46375808    -0.04500
C788        C  0.16859943  0.27526195  0.47745907    -0.21900
H789        H  0.18398454  0.25881779  0.52147500     0.19900
H790        H  0.13111576  0.32314640  0.51932494     0.18700
H791        H  0.13209144  0.31611598  0.56986741     0.15000
H792        H  0.17753320  0.26069607  0.47195982     0.14900
H793        H  0.17719599  0.26152891  0.56860495     0.33000
H794        H  0.13289140  0.31564916  0.47150368     0.35800
C795        C  0.14432531  0.30582146  0.28832024     0.21400
C796        C  0.14162379  0.30175585  0.26429749    -0.38500
C797        C  0.15507871  0.31419036  0.24923077     0.20400
C798        C  0.17005899  0.32954872  0.25750863     0.23000
C799        C  0.17276786  0.33363456  0.28156724    -0.39000
C800        C  0.15931006  0.32115973  0.29665527     0.21800
N801        N  0.13486894  0.29480384  0.30611670    -0.32300
C802        C  0.14398749  0.30295404  0.32598221    -0.09800
C803        C  0.15913916  0.31965108  0.32082791    -0.28600
N804        N  0.18182112  0.33820024  0.23974798    -0.45200
C805        C  0.17439066  0.32821544  0.22001050    -0.04500
C806        C  0.15761544  0.31319162  0.22522370    -0.21900
H807        H  0.13039880  0.28927180  0.25785713     0.19900
H808        H  0.18497839  0.34513411  0.28808395     0.18700
H809        H  0.16963651  0.32844111  0.33299185     0.15000
H810        H  0.14909256  0.30235759  0.21321991     0.14900
H811        H  0.12375002  0.28169423  0.30477137     0.33000
H812        H  0.19469274  0.34959493  0.24107531     0.35800
C813        C  0.48767890  0.15606935  0.13994876     0.21400
C814        C  0.50650935  0.14330819  0.13554649    -0.38500
C815        C  0.52680623  0.15364466  0.13966115     0.20400
C816        C  0.52840283  0.17510426  0.14760566     0.23000
C817        C  0.50945290  0.18797658  0.15201059    -0.39000
C818        C  0.48900068  0.17758223  0.14782275     0.21800
N819        N  0.46652830  0.14968023  0.13785845    -0.32300
C820        C  0.45412810  0.16717904  0.14441086    -0.09800
C821        C  0.46750459  0.18499215  0.15068889    -0.28600
N822        N  0.54980969  0.18076337  0.15058485    -0.45200
C823        C  0.56168935  0.16266265  0.14446880    -0.04500
C824        C  0.54791121  0.14552269  0.13755639    -0.21900
H825        H  0.50542996  0.12644222  0.12956675     0.19900
H826        H  0.51053565  0.20470266  0.15840456     0.18700
H827        H  0.46222747  0.20098868  0.15687861     0.15000
H828        H  0.55271567  0.12914754  0.13207224     0.14900
H829        H  0.46086665  0.13423621  0.13251076     0.33000
H830        H  0.55591072  0.19576420  0.15668180     0.35800
C831        C  0.36474055  0.16192889  0.99470535     0.21400
C832        C  0.36165499  0.17467039  0.01476400    -0.38500
C833        C  0.36211526  0.16322436  0.03606126     0.20400
C834        C  0.36558277  0.14070211  0.03754388     0.23000
C835        C  0.36848176  0.12779303  0.01725790    -0.39000
C836        C  0.36785030  0.13932891  0.99569930     0.21800
N837        N  0.36656055  0.16944253  0.97269636    -0.32300
C838        C  0.37078670  0.15166546  0.95919035    -0.09800
C839        C  0.37153718  0.13241690  0.97286317    -0.28600
N840        N  0.36764364  0.13437946  0.06019215    -0.45200
C841        C  0.36560191  0.15314074  0.07294684    -0.04500
C842        C  0.36181020  0.17128885  0.05843106    -0.21900
H843        H  0.35988177  0.19242041  0.01390045     0.19900
H844        H  0.37178408  0.11026725  0.01822251     0.18700
H845        H  0.37538551  0.11588878  0.96709544     0.15000
H846        H  0.36062812  0.18841999  0.06350370     0.14900
H847        H  0.36568461  0.18589555  0.96727154     0.33000
H848        H  0.37153889  0.11861916  0.06646036     0.35800
C849        C  0.28322366  0.26607296  0.17405896     0.21400
C850        C  0.28861136  0.24402935  0.17858074    -0.38500
C851        C  0.31003596  0.23762994  0.17233962     0.20400
C852        C  0.32515884  0.25204754  0.16244795     0.23000
C853        C  0.31973282  0.27421262  0.15784482    -0.39000
C854        C  0.29813639  0.28063889  0.16403077     0.21800
N855        N  0.26325682  0.27547885  0.17644767    -0.32300
C856        C  0.26527577  0.29613635  0.16767562    -0.09800
C857        C  0.28685492  0.30012676  0.16000120    -0.28600
N858        N  0.34390465  0.24130840  0.15666315    -0.45200
C859        C  0.34034484  0.21993877  0.16269348    -0.04500
C860        C  0.31952607  0.21709073  0.17262228    -0.21900
H861        H  0.27667363  0.23246170  0.18558193     0.19900
H862        H  0.33114471  0.28537174  0.14928954     0.18700
H863        H  0.29300263  0.31472181  0.15120109     0.15000
H864        H  0.31196228  0.20181101  0.17830824     0.14900
H865        H  0.24880709  0.26787853  0.18244293     0.33000
H866        H  0.35770978  0.24783329  0.14813798     0.35800
C867        C  0.33477049  0.10107726  0.54044469     0.21400
C868        C  0.34686330  0.09647964  0.51990240    -0.38500
C869        C  0.33610497  0.10150785  0.49852552     0.20400
C870        C  0.31501528  0.11050459  0.49790538     0.23000
C871        C  0.30304894  0.11512310  0.51826463    -0.39000
C872        C  0.31366471  0.10999521  0.53941277     0.21800
N873        N  0.34027534  0.09613779  0.56283262    -0.32300
C874        C  0.32236211  0.10176163  0.57589803    -0.09800
C875        C  0.30558640  0.11054699  0.56184279    -0.28600
N876        N  0.30746960  0.11195343  0.47584645    -0.45200
C877        C  0.32364467  0.10373337  0.46198205    -0.04500
C878        C  0.34198882  0.09723461  0.47546528    -0.21900
H879        H  0.36302672  0.08873399  0.52049513     0.19900
H880        H  0.28623536  0.12135976  0.51765169     0.18700
H881        H  0.28916053  0.11560077  0.56720996     0.15000
H882        H  0.35688287  0.08912546  0.46942460     0.14900
H883        H  0.35475200  0.08836562  0.56868000     0.33000
H884        H  0.29173842  0.11722973  0.47062395     0.35800
C885        C  0.21040720  0.19806874  0.37805464     0.21400
C886        C  0.23243658  0.19296248  0.37264532    -0.38500
C887        C  0.23868587  0.17099429  0.37638048     0.20400
C888        C  0.22410128  0.15526046  0.38480632     0.23000
C889        C  0.20203472  0.16040718  0.39033109    -0.39000
C890        C  0.19575923  0.18244059  0.38658160     0.21800
N891        N  0.20068493  0.21791653  0.37662968    -0.32300
C892        C  0.17968182  0.21497364  0.38427937    -0.09800
C893        C  0.17590649  0.19306084  0.39063409    -0.28600
N894        N  0.23439795  0.13574599  0.38755231    -0.45200
C895        C  0.25569122  0.13923282  0.38104762    -0.04500
C896        C  0.25898289  0.16096895  0.37388338    -0.21900
H897        H  0.24395721  0.20527636  0.36633560     0.19900
H898        H  0.19070101  0.14824499  0.39731338     0.18700
H899        H  0.16089602  0.18601238  0.39777397     0.15000
H900        H  0.27430048  0.16854221  0.36822265     0.14900
H901        H  0.20800086  0.23264610  0.37115264     0.33000
H902        H  0.22757500  0.12117972  0.39414220     0.35800
C903        C  0.33854059  0.10647332  0.28138388     0.21400
C904        C  0.33321108  0.10545063  0.25740213    -0.38500
C905        C  0.34854691  0.11518125  0.24204578     0.20400
C906        C  0.36766008  0.12520385  0.25009020     0.23000
C907        C  0.37291185  0.12634050  0.27407222    -0.39000
C908        C  0.35760720  0.11657505  0.28942482     0.21800
N909        N  0.32645909  0.09886662  0.29942351    -0.32300
C910        C  0.33776511  0.10417857  0.31919288    -0.09800
C911        C  0.35735002  0.11527805  0.31366054    -0.28600
N912        N  0.37898471  0.13417134  0.23220895    -0.45200
C913        C  0.36705271  0.13000402  0.21255671    -0.04500
C914        C  0.34794874  0.11803723  0.21796301    -0.21900
H915        H  0.31806784  0.09791282  0.25119634     0.19900
H916        H  0.38768087  0.13453916  0.28032724     0.18700
H917        H  0.36953014  0.12181262  0.32569390     0.15000
H918        H  0.33488602  0.11308114  0.20609380     0.14900
H919        H  0.31119238  0.09088144  0.29836595     0.33000
H920        H  0.39355234  0.14335569  0.23341464     0.35800
C921        C  0.79566860  0.48136826  0.88457063     0.21400
C922        C  0.78360003  0.46224446  0.87932813    -0.38500
C923        C  0.79466633  0.44222973  0.88355220     0.20400
C924        C  0.81605070  0.44140207  0.89239351     0.23000
C925        C  0.82807397  0.46046917  0.89765194    -0.39000
C926        C  0.81708431  0.48041916  0.89330596     0.21800
N927        N  0.78923195  0.50242185  0.88143834    -0.32300
C928        C  0.80679882  0.51483300  0.88806459    -0.09800
C929        C  0.82442182  0.50171838  0.89561655    -0.28600
N930        N  0.82311649  0.42049283  0.89426752    -0.45200
C931        C  0.80616487  0.40787388  0.88651477    -0.04500
C932        C  0.78806272  0.42078891  0.87975619    -0.21900
H933        H  0.76698544  0.46290281  0.87216724     0.19900
H934        H  0.84489354  0.45982117  0.90426440     0.18700
H935        H  0.84055595  0.50706568  0.90163493     0.15000
H936        H  0.77238002  0.41525674  0.87269663     0.14900
H937        H  0.77408815  0.50797640  0.87476837     0.33000
H938        H  0.83860907  0.41514042  0.90023733     0.35800
C939        C  0.86179049  0.60831250  0.78877205     0.21400
C940        C  0.87549463  0.62181136  0.77504570    -0.38500
C941        C  0.87280813  0.61991093  0.75072469     0.20400
C942        C  0.85762475  0.60567894  0.74071845     0.23000
C943        C  0.84396275  0.59210079  0.75444924    -0.39000
C944        C  0.84667302  0.59398263  0.77879860     0.21800
N945        N  0.85981610  0.60840545  0.81224241    -0.32300
C946        C  0.84320488  0.59415347  0.81723345    -0.09800
C947        C  0.83480058  0.58465680  0.79684434    -0.28600
N948        N  0.85729181  0.60808466  0.71725408    -0.45200
C949        C  0.87234682  0.62401380  0.71236148    -0.04500
C950        C  0.88239957  0.63167143  0.73277974    -0.21900
H951        H  0.88688391  0.63349562  0.78273964     0.19900
H952        H  0.83160675  0.58141373  0.74677458     0.18700
H953        H  0.82094170  0.57344527  0.79534253     0.15000
H954        H  0.89444790  0.64478107  0.73434657     0.14900
H955        H  0.86843358  0.61838093  0.82401489     0.33000
H956        H  0.84690314  0.60001831  0.70541965     0.35800
C957        C  0.72667400  0.94018907  0.65110172     0.21400
C958        C  0.73965800  0.95884557  0.65616861    -0.38500
C959        C  0.72912076  0.97936968  0.65293248     0.20400
C960        C  0.70737781  0.98099247  0.64529024     0.23000
C961        C  0.69450719  0.96245677  0.64021212    -0.39000
C962        C  0.70498057  0.94207936  0.64340032     0.21800
N963        N  0.73255856  0.91880098  0.65287346    -0.32300
C964        C  0.71441329  0.90716667  0.64622289    -0.09800
C965        C  0.69695085  0.92113547  0.64017678    -0.28600
N966        N  0.70094693  0.00210609  0.64389027    -0.45200
C967        C  0.71862108  0.01420874  0.65067758    -0.04500
C968        C  0.73663301  0.00066070  0.65640136    -0.21900
H969        H  0.75660865  0.95748478  0.66225926     0.19900
H970        H  0.67749727  0.96381399  0.63430362     0.18700
H971        H  0.68051385  0.91656118  0.63435129     0.15000
H972        H  0.75286674  0.00568304  0.66242966     0.14900
H973        H  0.74784326  0.91252455  0.65833608     0.33000
H974        H  0.68539142  0.00794062  0.63867980     0.35800
C975        C  0.79211174  0.77005363  0.65571398     0.21400
C976        C  0.81487767  0.76540709  0.65439082    -0.38500
C977        C  0.82077115  0.74309315  0.65656122     0.20400
C978        C  0.80515012  0.72670899  0.65996960     0.23000
C979        C  0.78239331  0.73134347  0.66132959    -0.39000
C980        C  0.77650454  0.75362466  0.65896229     0.21800
N981        N  0.78221462  0.78978718  0.65306648    -0.32300
C982        C  0.76016282  0.78587027  0.65449250    -0.09800
C983        C  0.75593393  0.76351310  0.65818688    -0.28600
N984        N  0.81479369  0.70673891  0.66001139    -0.45200
C985        C  0.83667882  0.71036786  0.65635274    -0.04500
C986        C  0.84110943  0.73286359  0.65433151    -0.21900
H987        H  0.82704363  0.77815849  0.65123293     0.19900
H988        H  0.77013501  0.71847950  0.66339416     0.18700
H989        H  0.73996097  0.75553860  0.65964654     0.15000
H990        H  0.85687668  0.74059957  0.65066320     0.14900
H991        H  0.78994693  0.80490855  0.64991941     0.33000
H992        H  0.80685004  0.69152459  0.66148082     0.35800
C993        C  0.69671448  0.67726358  0.87002028     0.21400
C994        C  0.70137769  0.65489614  0.87423151    -0.38500
C995        C  0.72354018  0.64850023  0.87112485     0.20400
C996        C  0.73976967  0.66328766  0.86430552     0.23000
C997        C  0.73508391  0.68560971  0.85996314    -0.39000
C998        C  0.71297515  0.69201120  0.86318276     0.21800
N999        N  0.67736590  0.68775456  0.87344744    -0.32300
C1000       C  0.68142906  0.70933580  0.86900290    -0.09800
C1001       C  0.70340040  0.71263300  0.86238183    -0.28600
N1002       N  0.75977686  0.65354596  0.86428908    -0.45200
C1003       C  0.75633434  0.63241583  0.87119930    -0.04500
C1004       C  0.73389875  0.62856319  0.87541835    -0.21900
H1005       H  0.68883649  0.64349254  0.88027715     0.19900
H1006       H  0.74787570  0.69730075  0.85527910     0.18700
H1007       H  0.71149614  0.72814119  0.85853358     0.15000
H1008       H  0.72636367  0.61353365  0.88184231     0.14900
H1009       H  0.66259712  0.68083635  0.87946925     0.33000
H1010       H  0.77495528  0.66101186  0.86055564     0.35800
C1011       C  0.64409596  0.79755707  0.77773456     0.21400
C1012       C  0.64234482  0.79318234  0.75363686    -0.38500
C1013       C  0.65498780  0.80675836  0.73882152     0.20400
C1014       C  0.66830441  0.82338918  0.74748281     0.23000
C1015       C  0.66999147  0.82780269  0.77154480    -0.39000
C1016       C  0.65741057  0.81422268  0.78633300     0.21800
N1017       N  0.63522289  0.78590002  0.79541870    -0.32300
C1018       C  0.64306562  0.79502096  0.81542420    -0.09800
C1019       C  0.65681988  0.81289440  0.81048522    -0.28600
N1020       N  0.67974381  0.83302372  0.73010633    -0.45200
C1021       C  0.67376938  0.82257550  0.71012840    -0.04500
C1022       C  0.65823665  0.80608102  0.71483165    -0.21900
H1023       H  0.63243925  0.77972760  0.74699153     0.19900
H1024       H  0.68090805  0.84040592  0.77830540     0.18700
H1025       H  0.66612748  0.82272833  0.82281648     0.15000
H1026       H  0.65107090  0.79455315  0.70257578     0.14900
H1027       H  0.62531231  0.77184773  0.79394889     0.33000
H1028       H  0.69147887  0.84554724  0.73184378     0.35800
C1029       C  0.70497341  0.93854290  0.38241972     0.21400
C1030       C  0.69263970  0.95769917  0.38674458    -0.38500
C1031       C  0.70420571  0.97760005  0.38445729     0.20400
C1032       C  0.72634017  0.97844052  0.37820455     0.23000
C1033       C  0.73867025  0.95925361  0.37379062    -0.39000
C1034       C  0.72712431  0.93928890  0.37621768     0.21800
N1035       N  0.69799686  0.91758997  0.38425189    -0.32300
C1036       C  0.71585179  0.90485074  0.37934564    -0.09800
C1037       C  0.73430860  0.91778119  0.37410209    -0.28600
N1038       N  0.73350328  0.99943221  0.37748414    -0.45200
C1039       C  0.71574748  0.01193732  0.38336834    -0.04500
C1040       C  0.69721214  0.99892409  0.38781545    -0.21900
H1041       H  0.67538085  0.95714078  0.39181798     0.19900
H1042       H  0.75602834  0.95980821  0.36912427     0.18700
H1043       H  0.75082880  0.91219365  0.36976915     0.15000
H1044       H  0.68082086  0.00436767  0.39285560     0.14900
H1045       H  0.68216330  0.91227775  0.38895368     0.33000
H1046       H  0.74940267  0.00489307  0.37328761     0.35800
C1047       C  0.69306968  0.82001079  0.49114435     0.21400
C1048       C  0.67963334  0.82064098  0.51128621    -0.38500
C1049       C  0.69094690  0.82253512  0.53281142     0.20400
C1050       C  0.71382868  0.82369148  0.53398021     0.23000
C1051       C  0.72718479  0.82284101  0.51403435    -0.39000
C1052       C  0.71594281  0.82096348  0.49271005     0.21800
N1053       N  0.68656269  0.82009383  0.46849982    -0.32300
C1054       C  0.70552767  0.82126492  0.45580324    -0.09800
C1055       C  0.72408665  0.82155619  0.47035027    -0.28600
N1056       N  0.72067197  0.82639740  0.55610516    -0.45200
C1057       C  0.70213413  0.82688654  0.56941162    -0.04500
C1058       C  0.68316708  0.82448403  0.55553654    -0.21900
H1059       H  0.66172987  0.82030169  0.51024230     0.19900
H1060       H  0.74505043  0.82419950  0.51499696     0.18700
H1061       H  0.74126002  0.82325657  0.46522948     0.15000
H1062       H  0.66608321  0.82452175  0.56122620     0.14900
H1063       H  0.67030806  0.82040682  0.46213875     0.33000
H1064       H  0.73704995  0.82799733  0.56179851     0.35800
C1065       C  0.65912042  0.76426600  0.99096696     0.21400
C1066       C  0.66322114  0.75198786  0.01132368    -0.38500
C1067       C  0.66072983  0.76332835  0.03238079     0.20400
C1068       C  0.65453663  0.78529400  0.03331452     0.23000
C1069       C  0.65047003  0.79767709  0.01278507    -0.39000
C1070       C  0.65308605  0.78629229  0.99152941     0.21800
N1071       N  0.65853440  0.75657495  0.96904510    -0.32300
C1072       C  0.65207924  0.77368743  0.95530329    -0.09800
C1073       C  0.64874127  0.79266963  0.96862403    -0.28600
N1074       N  0.65122443  0.79146624  0.05570347    -0.45200
C1075       C  0.65511530  0.77313514  0.06885385    -0.04500
C1076       C  0.66131352  0.75543152  0.05489552    -0.21900
H1077       H  0.66715893  0.73457441  0.01082941     0.19900
H1078       H  0.64486283  0.81462362  0.01333663     0.18700
H1079       H  0.64258120  0.80848703  0.96260412     0.15000
H1080       H  0.66432949  0.73857385  0.06039166     0.14900
H1081       H  0.66140427  0.74032231  0.96385934     0.33000
H1082       H  0.64523554  0.80664898  0.06149950     0.35800
C1083       C  0.65260052  0.79404835  0.24687997     0.21400
C1084       C  0.64912101  0.79079603  0.27099987    -0.38500
C1085       C  0.66254933  0.80332434  0.28598401     0.20400
C1086       C  0.67832546  0.81777020  0.27742507     0.23000
C1087       C  0.68192904  0.82088199  0.25335140    -0.39000
C1088       C  0.66835190  0.80855838  0.23839466     0.21800
N1089       N  0.64233011  0.78378802  0.22913874    -0.32300
C1090       C  0.65152167  0.79179528  0.20918021    -0.09800
C1091       C  0.66782401  0.80736928  0.21422814    -0.28600
N1092       N  0.68944829  0.82719692  0.29505783    -0.45200
C1093       C  0.68087746  0.81874387  0.31509472    -0.04500
C1094       C  0.66391843  0.80379691  0.31020227    -0.21900
H1095       H  0.63697957  0.77923149  0.27758784     0.19900
H1096       H  0.69450830  0.83198026  0.24677294     0.18700
H1097       H  0.67839170  0.81600783  0.20196963     0.15000
H1098       H  0.65445716  0.79407935  0.32256683     0.14900
H1099       H  0.63015925  0.77165416  0.23053585     0.33000
H1100       H  0.70256116  0.83831252  0.29352596     0.35800
C1101       C  0.87049472  0.62812157  0.53698008     0.21400
C1102       C  0.87684502  0.61628780  0.51687077    -0.38500
C1103       C  0.87173433  0.62633960  0.49516882     0.20400
C1104       C  0.86119979  0.64660298  0.49383644     0.23000
C1105       C  0.85487963  0.65831889  0.51376497    -0.39000
C1106       C  0.85991140  0.64833082  0.53525061     0.21800
N1107       N  0.87511880  0.62333497  0.55959654    -0.32300
C1108       C  0.86759576  0.64079891  0.57210494    -0.09800
C1109       C  0.85786601  0.65653086  0.55747791    -0.28600
N1110       N  0.85988951  0.65370140  0.47161463    -0.45200
C1111       C  0.86967359  0.63801183  0.45839392    -0.04500
C1112       C  0.87712343  0.62047763  0.47241679    -0.21900
H1113       H  0.88583092  0.60085851  0.51803357     0.19900
H1114       H  0.84738761  0.67452115  0.51262225     0.18700
H1115       H  0.85141657  0.67252457  0.56234072     0.15000
H1116       H  0.88650415  0.60619750  0.46693021     0.14900
H1117       H  0.88403876  0.60976064  0.56595486     0.33000
H1118       H  0.85367190  0.66887080  0.46590139     0.35800
C1119       C  0.82549892  0.73903516  0.37107645     0.21400
C1120       C  0.82178228  0.76193633  0.37136451    -0.38500
C1121       C  0.79946706  0.76860143  0.37030500     0.20400
C1122       C  0.78230526  0.75352545  0.36914853     0.23000
C1123       C  0.78600625  0.73073430  0.36878134    -0.39000
C1124       C  0.80820977  0.72412157  0.36974404     0.21800
N1125       N  0.84501334  0.72838369  0.37309181    -0.32300
C1126       C  0.83995786  0.70659926  0.37310188    -0.09800
C1127       C  0.81721293  0.70332108  0.37087194    -0.28600
N1128       N  0.76262920  0.76378730  0.36957233    -0.45200
C1129       C  0.76711439  0.78559856  0.37104445    -0.04500
C1130       C  0.78995286  0.78934339  0.37137897    -0.21900
H1131       H  0.83521222  0.77365057  0.37281980     0.19900
H1132       H  0.77253465  0.71898555  0.36831042     0.18700
H1133       H  0.80838946  0.68779787  0.37093869     0.15000
H1134       H  0.79839530  0.80498087  0.37306950     0.14900
H1135       H  0.86065895  0.73544974  0.37504654     0.33000
H1136       H  0.74703588  0.75633086  0.36953105     0.35800
C1137       C  0.79385579  0.43671187  0.14449734     0.21400
C1138       C  0.78148776  0.45601837  0.14827809    -0.38500
C1139       C  0.79284726  0.47592019  0.14457796     0.20400
C1140       C  0.81477652  0.47644254  0.13753518     0.23000
C1141       C  0.82709395  0.45719211  0.13372758    -0.39000
C1142       C  0.81579792  0.43735898  0.13752404     0.21800
N1143       N  0.78714540  0.41574849  0.14742808    -0.32300
C1144       C  0.80498822  0.40304778  0.14231918    -0.09800
C1145       C  0.82314570  0.41592626  0.13603446    -0.28600
N1146       N  0.82204258  0.49727316  0.13591912    -0.45200
C1147       C  0.80471602  0.51019013  0.14210029    -0.04500
C1148       C  0.78612647  0.49750796  0.14753834    -0.21900
H1149       H  0.76442069  0.45557297  0.15402399     0.19900
H1150       H  0.84432368  0.45763427  0.12853742     0.18700
H1151       H  0.83957961  0.41035536  0.13131039     0.15000
H1152       H  0.77008106  0.50326997  0.15333874     0.14900
H1153       H  0.77152236  0.41042120  0.15279581     0.33000
H1154       H  0.83797839  0.50238107  0.13134791     0.35800
C1155       C  0.81353285  0.60205102  0.03687414     0.21400
C1156       C  0.80109719  0.60559636  0.01650153    -0.38500
C1157       C  0.81253549  0.60329785  0.99542291     0.20400
C1158       C  0.83479744  0.59789379  0.99440017     0.23000
C1159       C  0.84737510  0.59433587  0.01500037    -0.39000
C1160       C  0.83582476  0.59665756  0.03633916     0.21800
N1161       N  0.80584686  0.60181829  0.05885032    -0.32300
C1162       C  0.82318947  0.59623310  0.07277241    -0.09800
C1163       C  0.84233671  0.59300768  0.05940766    -0.28600
N1164       N  0.84112191  0.59516646  0.97188101    -0.45200
C1165       C  0.82255538  0.59867601  0.95878218    -0.04500
C1166       C  0.80458907  0.60389969  0.97294016    -0.21900
H1167       H  0.78351888  0.60915932  0.01701100     0.19900
H1168       H  0.86462780  0.58946950  0.01446057     0.18700
H1169       H  0.85843755  0.58760242  0.06556893     0.15000
H1170       H  0.78760009  0.60668288  0.96752611     0.14900
H1171       H  0.78946329  0.60454021  0.06400974     0.33000
H1172       H  0.85667363  0.59012971  0.96593118     0.35800
C1173       C  0.72742918  0.64646012  0.15293205     0.21400
C1174       C  0.70486691  0.65151685  0.14988151    -0.38500
C1175       C  0.69934573  0.67397756  0.15123223     0.20400
C1176       C  0.71514145  0.69008008  0.15517217     0.23000
C1177       C  0.73760993  0.68503481  0.15825996    -0.39000
C1178       C  0.74309139  0.66265356  0.15701571     0.21800
N1179       N  0.73715670  0.62654203  0.15151706    -0.32300
C1180       C  0.75912345  0.63022739  0.15464263    -0.09800
C1181       C  0.76342830  0.65249892  0.15824363    -0.28600
N1182       N  0.70589497  0.71019399  0.15498944    -0.45200
C1183       C  0.68401850  0.70694684  0.15103699    -0.04500
C1184       C  0.67922723  0.68457761  0.14860747    -0.21900
H1185       H  0.69259411  0.63895691  0.14640427     0.19900
H1186       H  0.74997524  0.69765582  0.16107337     0.18700
H1187       H  0.77938646  0.66029352  0.16066148     0.15000
H1188       H  0.66330230  0.67715732  0.14494856     0.14900
H1189       H  0.72945334  0.61152246  0.14795825     0.33000
H1190       H  0.71401505  0.72524185  0.15717241     0.35800
C1191       C  0.86221538  0.60432086  0.24256407     0.21400
C1192       C  0.87612036  0.61798984  0.25579965    -0.38500
C1193       C  0.87401411  0.61620727  0.28019620     0.20400
C1194       C  0.85924053  0.60184780  0.29073670     0.23000
C1195       C  0.84527742  0.58816765  0.27749109    -0.39000
C1196       C  0.84730261  0.59004729  0.25303185     0.21800
N1197       N  0.85991763  0.60415091  0.21911649    -0.32300
C1198       C  0.84320901  0.58990097  0.21456081    -0.09800
C1199       C  0.83504003  0.58065643  0.23528164    -0.28600
N1200       N  0.85960529  0.60423109  0.31417618    -0.45200
C1201       C  0.87467523  0.62026983  0.31852461    -0.04500
C1202       C  0.88400638  0.62807846  0.29775597    -0.21900
H1203       H  0.88728234  0.62967694  0.24768101     0.19900
H1204       H  0.83322256  0.57739314  0.28560614     0.18700
H1205       H  0.82125097  0.56940388  0.23716041     0.15000
H1206       H  0.89588042  0.64129964  0.29572414     0.14900
H1207       H  0.86839595  0.61398695  0.20704795     0.33000
H1208       H  0.84967590  0.59602207  0.32638328     0.35800
C1209       C  0.98809694  0.67312008  0.64563543     0.21400
C1210       C  0.00707273  0.68582538  0.65012425    -0.38500
C1211       C  0.02744667  0.67502751  0.64692945     0.20400
C1212       C  0.02872600  0.65326224  0.63986346     0.23000
C1213       C  0.00981349  0.64060102  0.63538310    -0.39000
C1214       C  0.98951819  0.65137363  0.63854929     0.21800
N1215       N  0.96677566  0.67934036  0.64770894    -0.32300
C1216       C  0.95465827  0.66135429  0.64192566    -0.09800
C1217       C  0.96825427  0.64363330  0.63610798    -0.28600
N1218       N  0.04989685  0.64664726  0.63850564    -0.45200
C1219       C  0.06226925  0.66427843  0.64473837    -0.04500
C1220       C  0.04889303  0.68235424  0.65006983    -0.21900
H1221       H  0.00605222  0.70277915  0.65582813     0.19900
H1222       H  0.01082889  0.62354720  0.63000202     0.18700
H1223       H  0.96323499  0.62720519  0.63105844     0.15000
H1224       H  0.05413974  0.69852181  0.65574164     0.14900
H1225       H  0.96085813  0.69467916  0.65302005     0.33000
H1226       H  0.05558705  0.63100771  0.63379330     0.35800
C1227       C  0.20347058  0.47892407  0.89852683     0.21400
C1228       C  0.19081024  0.45983787  0.90195825    -0.38500
C1229       C  0.20255024  0.43990328  0.90154594     0.20400
C1230       C  0.22521901  0.43898067  0.89803152     0.23000
C1231       C  0.23793652  0.45815611  0.89465643    -0.39000
C1232       C  0.22614623  0.47817913  0.89500726     0.21800
N1233       N  0.19599189  0.49974197  0.89737051    -0.32300
C1234       C  0.21394060  0.51247806  0.89301108    -0.09800
C1235       C  0.23314179  0.49965514  0.89149593    -0.28600
N1236       N  0.23216313  0.41788264  0.89707993    -0.45200
C1237       C  0.21370977  0.40538466  0.89982640    -0.04500
C1238       C  0.19498788  0.41855112  0.90286706    -0.21900
H1239       H  0.17302108  0.46044246  0.90425813     0.19900
H1240       H  0.25559573  0.45750378  0.89148528     0.18700
H1241       H  0.24983617  0.50523950  0.88800254     0.15000
H1242       H  0.17797919  0.41320776  0.90476266     0.14900
H1243       H  0.17958532  0.50495968  0.89918277     0.33000
H1244       H  0.24824983  0.41235061  0.89388573     0.35800
C1245       C  0.16869641  0.59725451  0.78304288     0.21400
C1246       C  0.17105403  0.59360900  0.75889243    -0.38500
C1247       C  0.15970406  0.60839074  0.74412383     0.20400
C1248       C  0.14701133  0.62548206  0.75285200     0.23000
C1249       C  0.14463191  0.62911788  0.77698684    -0.39000
C1250       C  0.15595927  0.61432528  0.79175107     0.21800
N1251       N  0.17905350  0.58649803  0.80054525    -0.32300
C1252       C  0.17302519  0.59678137  0.82057398    -0.09800
C1253       C  0.15844330  0.61415169  0.81582529    -0.28600
N1254       N  0.13883159  0.63789280  0.73531556    -0.45200
C1255       C  0.14633187  0.62874593  0.71522204    -0.04500
C1256       C  0.15937716  0.61021306  0.71996927    -0.21900
H1257       H  0.18145335  0.58058097  0.75210875     0.19900
H1258       H  0.13514368  0.64282749  0.78374617     0.18700
H1259       H  0.15165611  0.62584555  0.82812952     0.15000
H1260       H  0.16803220  0.59995544  0.70752756     0.14900
H1261       H  0.19037242  0.57353792  0.79886793     0.33000
H1262       H  0.12915869  0.65210743  0.73694555     0.35800
C1263       C  0.29572863  0.94101022  0.65197604     0.21400
C1264       C  0.28255632  0.96001273  0.65454975    -0.38500
C1265       C  0.29364205  0.98021874  0.65165855     0.20400
C1266       C  0.31605561  0.98124890  0.64663501     0.23000
C1267       C  0.32912873  0.96236219  0.64408265    -0.39000
C1268       C  0.31811269  0.94229418  0.64692507     0.21800
N1269       N  0.28933663  0.91980220  0.65362394    -0.32300
C1270       C  0.30784893  0.90769115  0.64949001    -0.09800
C1271       C  0.32607364  0.92114924  0.64531128    -0.28600
N1272       N  0.32283154  0.00219951  0.64490843    -0.45200
C1273       C  0.30469300  0.01475713  0.64887468    -0.04500
C1274       C  0.28607265  0.00169661  0.65311615    -0.21900
H1275       H  0.26504653  0.95913689  0.65848848     0.19900
H1276       H  0.34663963  0.96323853  0.64014514     0.18700
H1277       H  0.34288226  0.91611681  0.64144784     0.15000
H1278       H  0.26939659  0.00716576  0.65694274     0.14900
H1279       H  0.27343006  0.91394703  0.65713727     0.33000
H1280       H  0.33890831  0.00763402  0.64139965     0.35800
C1281       C  0.21446911  0.72936664  0.65348540     0.21400
C1282       C  0.23711375  0.73403082  0.65176793    -0.38500
C1283       C  0.24295832  0.75612789  0.65491301     0.20400
C1284       C  0.22748625  0.77249844  0.65918050     0.23000
C1285       C  0.20475205  0.76780979  0.66093164    -0.39000
C1286       C  0.19888664  0.74557891  0.65798677     0.21800
N1287       N  0.20475762  0.70961258  0.65118976    -0.32300
C1288       C  0.18280828  0.71318469  0.65435625    -0.09800
C1289       C  0.17845821  0.73541242  0.65858610    -0.28600
N1290       N  0.23738573  0.79233728  0.66052538    -0.45200
C1291       C  0.25926228  0.78835722  0.65710998    -0.04500
C1292       C  0.26333916  0.76600794  0.65373411    -0.21900
H1293       H  0.24929709  0.72139250  0.64813271     0.19900
H1294       H  0.19254261  0.78050828  0.66420420     0.18700
H1295       H  0.16252078  0.74307013  0.66162341     0.15000
H1296       H  0.27906270  0.75815134  0.65006582     0.14900
H1297       H  0.21257977  0.69463090  0.64762694     0.33000
H1298       H  0.22973349  0.80759802  0.66303457     0.35800
C1299       C  0.48914940  0.76720186  0.88996736     0.21400
C1300       C  0.50820869  0.78025354  0.89151564    -0.38500
C1301       C  0.52836311  0.76891875  0.88983152     0.20400
C1302       C  0.52950789  0.74630995  0.88678921     0.23000
C1303       C  0.51039930  0.73323302  0.88522971    -0.39000
C1304       C  0.49019027  0.74458835  0.88691280     0.21800
N1305       N  0.46803671  0.77405543  0.89104884    -0.32300
C1306       C  0.45552416  0.75568997  0.88866637    -0.09800
C1307       C  0.46870280  0.73697430  0.88597342    -0.28600
N1308       N  0.55071575  0.73963363  0.88526658    -0.45200
C1309       C  0.56304221  0.75818051  0.88737802    -0.04500
C1310       C  0.54970901  0.77672562  0.89030814    -0.21900
H1311       H  0.50740414  0.79794403  0.89377423     0.19900
H1312       H  0.51119931  0.71557049  0.88277539     0.18700
H1313       H  0.46328696  0.72012600  0.88366321     0.15000
H1314       H  0.55494585  0.79368795  0.89214370     0.14900
H1315       H  0.46247826  0.79023857  0.89321628     0.33000
H1316       H  0.55642655  0.72356651  0.88275736     0.35800
C1317       C  0.30649962  0.68806203  0.87123967     0.21400
C1318       C  0.28403871  0.68364451  0.86730206    -0.38500
C1319       C  0.27790304  0.66146884  0.86899082     0.20400
C1320       C  0.29299715  0.64487136  0.87405267     0.23000
C1321       C  0.31555875  0.64929215  0.87787086    -0.39000
C1322       C  0.32170314  0.67156630  0.87630859     0.21800
N1323       N  0.31610947  0.70794524  0.87204056    -0.32300
C1324       C  0.33759783  0.70418637  0.87768444    -0.09800
C1325       C  0.34181574  0.68167888  0.88038556    -0.28600
N1326       N  0.28262199  0.62539184  0.87637615    -0.45200
C1327       C  0.26080977  0.62977228  0.87299365    -0.04500
C1328       C  0.25724339  0.65203411  0.86816805    -0.21900
H1329       H  0.27207764  0.69662033  0.86397222     0.19900
H1330       H  0.32729491  0.63645081  0.88246594     0.18700
H1331       H  0.35728787  0.67386479  0.88533481     0.15000
H1332       H  0.24153262  0.66036764  0.86560742     0.14900
H1333       H  0.30840333  0.72319322  0.86938849     0.33000
H1334       H  0.28976109  0.61030924  0.88110977     0.35800
C1335       C  0.37131679  0.79154683  0.78172039     0.21400
C1336       C  0.37335247  0.78765700  0.75754374    -0.38500
C1337       C  0.36199862  0.80246425  0.74272962     0.20400
C1338       C  0.34954912  0.81972711  0.75145918     0.23000
C1339       C  0.34754347  0.82361669  0.77558905    -0.39000
C1340       C  0.35892754  0.80888501  0.79037002     0.21800
N1341       N  0.37954049  0.77924092  0.79938854    -0.32300
C1342       C  0.37230443  0.78873673  0.81944792    -0.09800
C1343       C  0.35949800  0.80737935  0.81452630    -0.28600
N1344       N  0.33936562  0.83070851  0.73399788    -0.45200
C1345       C  0.34527466  0.82047905  0.71389725    -0.04500
C1346       C  0.35950446  0.80278065  0.71860529    -0.21900
H1347       H  0.38267659  0.77383304  0.75079680     0.19900
H1348       H  0.33742948  0.83686413  0.78237066     0.18700
H1349       H  0.35107267  0.81789995  0.82689475     0.15000
H1350       H  0.36625480  0.79114837  0.70621476     0.14900
H1351       H  0.38898627  0.76488228  0.79788222     0.33000
H1352       H  0.32842283  0.84395961  0.73572716     0.35800
C1353       C  0.99071488  0.67181804  0.38881604     0.21400
C1354       C  0.00943106  0.68470318  0.38375784    -0.38500
C1355       C  0.02999062  0.67465780  0.38826171     0.20400
C1356       C  0.03170652  0.65341541  0.39710509     0.23000
C1357       C  0.01303808  0.64052845  0.40208156    -0.39000
C1358       C  0.99252535  0.65056023  0.39758601     0.21800
N1359       N  0.96931799  0.67731206  0.38554342    -0.32300
C1360       C  0.95750258  0.65935066  0.39218394    -0.09800
C1361       C  0.97139049  0.64237440  0.39984768    -0.28600
N1362       N  0.05301438  0.64737992  0.39918186    -0.45200
C1363       C  0.06498947  0.66483298  0.39151779    -0.04500
C1364       C  0.05125510  0.68223704  0.38465023    -0.21900
H1365       H  0.00809110  0.70120474  0.37658106     0.19900
H1366       H  0.01439494  0.62381316  0.40868097     0.18700
H1367       H  0.96666440  0.62608141  0.40580849     0.15000
H1368       H  0.05615227  0.69802407  0.37743940     0.14900
H1369       H  0.96317243  0.69212720  0.37878825     0.33000
H1370       H  0.05904195  0.63213385  0.40501418     0.35800
C1371       C  0.14635878  0.64065876  0.49579972     0.21400
C1372       C  0.14436644  0.62774544  0.51628720    -0.38500
C1373       C  0.14554192  0.63933434  0.53757543     0.20400
C1374       C  0.14832387  0.66197844  0.53816756     0.23000
C1375       C  0.15025745  0.67478224  0.51788052    -0.39000
C1376       C  0.14921721  0.66326926  0.49682473     0.21800
N1377       N  0.14490335  0.63403119  0.47331829    -0.32300
C1378       C  0.14678036  0.65270742  0.46023298    -0.09800
C1379       C  0.14955972  0.67113687  0.47433328    -0.28600
N1380       N  0.14794026  0.66936423  0.56017781    -0.45200
C1381       C  0.14490578  0.65142799  0.57398357    -0.04500
C1382       C  0.14343419  0.63226183  0.56058677    -0.21900
H1383       H  0.14173997  0.61011454  0.51570204     0.19900
H1384       H  0.15203794  0.69252941  0.51844602     0.18700
H1385       H  0.15086828  0.68819776  0.46883914     0.15000
H1386       H  0.14041727  0.61563830  0.56674831     0.14900
H1387       H  0.14203309  0.61806510  0.46732279     0.33000
H1388       H  0.14914359  0.68578306  0.56546220     0.35800
C1389       C  0.22420443  0.48101761  0.14434427     0.21400
C1390       C  0.23681163  0.46182763  0.14813298    -0.38500
C1391       C  0.22529037  0.44187940  0.14574734     0.20400
C1392       C  0.20300243  0.44119081  0.13991805     0.23000
C1393       C  0.19047741  0.46028845  0.13604765    -0.39000
C1394       C  0.20191466  0.48014713  0.13858157     0.21800
N1395       N  0.23084186  0.50205584  0.14664132    -0.32300
C1396       C  0.21252757  0.51448561  0.14247107    -0.09800
C1397       C  0.19424824  0.50142025  0.13729695    -0.28600
N1398       N  0.19560708  0.42039007  0.13973910    -0.45200
C1399       C  0.21325929  0.40770169  0.14557347    -0.04500
C1400       C  0.23214438  0.42042690  0.14934342    -0.21900
H1401       H  0.25412166  0.46238998  0.15310501     0.19900
H1402       H  0.17296333  0.45973381  0.13194681     0.18700
H1403       H  0.17745991  0.50677644  0.13365799     0.15000
H1404       H  0.24845782  0.41478880  0.15458827     0.14900
H1405       H  0.24660856  0.50757264  0.15134198     0.33000
H1406       H  0.17944040  0.41517924  0.13631652     0.35800
C1407       C  0.20269896  0.60855211  0.03810588     0.21400
C1408       C  0.21430546  0.61432154  0.01773397    -0.38500
C1409       C  0.20442733  0.60806416  0.99654992     0.20400
C1410       C  0.18442830  0.59696341  0.99563911     0.23000
C1411       C  0.17280799  0.59115211  0.01609486    -0.39000
C1412       C  0.18271651  0.59740851  0.03737509     0.21800
N1413       N  0.20963028  0.61094948  0.06029312    -0.32300
C1414       C  0.19409322  0.60122398  0.07395538    -0.09800
C1415       C  0.17687800  0.59274260  0.06030421    -0.28600
N1416       N  0.17933359  0.59165671  0.97338175    -0.45200
C1417       C  0.19632097  0.59926897  0.96011357    -0.04500
C1418       C  0.21223070  0.60964447  0.97397497    -0.21900
H1419       H  0.23027953  0.62239010  0.01837493     0.19900
H1420       H  0.15756563  0.58179975  0.01551206     0.18700
H1421       H  0.16286696  0.58311683  0.06621379     0.15000
H1422       H  0.22788323  0.61656198  0.96838540     0.14900
H1423       H  0.22465290  0.61777869  0.06575561     0.33000
H1424       H  0.16571300  0.58250194  0.96770584     0.35800
C1425       C  0.15859431  0.61138693  0.28954785     0.21400
C1426       C  0.17088933  0.59630591  0.27628989    -0.38500
C1427       C  0.16954162  0.59890248  0.25188729     0.20400
C1428       C  0.15694142  0.61529251  0.24135065     0.23000
C1429       C  0.14457221  0.63038828  0.25462788    -0.39000
C1430       C  0.14588924  0.62775129  0.27909257     0.21800
N1431       N  0.15823894  0.61320785  0.31303111    -0.32300
C1432       C  0.14525955  0.63090568  0.31763451    -0.09800
C1433       C  0.13713204  0.64030451  0.29689744    -0.28600
N1434       N  0.15967496  0.61509827  0.21792101    -0.45200
C1435       C  0.17421367  0.59851681  0.21359091    -0.04500
C1436       C  0.18057797  0.58799842  0.23434824    -0.21900
H1437       H  0.18127041  0.58383653  0.28439974     0.19900
H1438       H  0.13512079  0.64358652  0.24654547     0.18700
H1439       H  0.12697210  0.65494666  0.29507442     0.15000
H1440       H  0.19254378  0.57480765  0.23642177     0.14900
H1441       H  0.16691537  0.60348943  0.32513601     0.33000
H1442       H  0.15285417  0.62613696  0.20576969     0.35800
C1443       C  0.31448831  0.94655068  0.38299196     0.21400
C1444       C  0.32686816  0.96579912  0.38579470    -0.38500
C1445       C  0.31479366  0.98546360  0.38531420     0.20400
C1446       C  0.29207115  0.98615046  0.38198994     0.23000
C1447       C  0.27958270  0.96675138  0.37907479    -0.39000
C1448       C  0.29172451  0.94688831  0.37983006     0.21800
N1449       N  0.32220517  0.92582992  0.38365591    -0.32300
C1450       C  0.30431028  0.91268154  0.38100840    -0.09800
C1451       C  0.28492592  0.92515846  0.37849528    -0.28600
N1452       N  0.28471671  0.00717468  0.38243483    -0.45200
C1453       C  0.30302875  0.01968445  0.38620545    -0.04500
C1454       C  0.32196601  0.00669077  0.38808945    -0.21900
H1455       H  0.34462599  0.96546944  0.38851279     0.19900
H1456       H  0.26178087  0.96706578  0.37673101     0.18700
H1457       H  0.26816880  0.91914673  0.37638467     0.15000
H1458       H  0.33882626  0.01211034  0.39099299     0.14900
H1459       H  0.33865254  0.92092011  0.38611234     0.33000
H1460       H  0.26841376  0.01263328  0.38031993     0.35800
C1461       C  0.33105733  0.82590891  0.53677306     0.21400
C1462       C  0.34413411  0.82554689  0.51626786    -0.38500
C1463       C  0.33253792  0.82814322  0.49487511     0.20400
C1464       C  0.30977538  0.83091606  0.49427018     0.23000
C1465       C  0.29682536  0.83108376  0.51451782    -0.39000
C1466       C  0.30829322  0.82846403  0.53563178     0.21800
N1467       N  0.33785280  0.82516185  0.55936812    -0.32300
C1468       C  0.31916415  0.82736908  0.57242985    -0.09800
C1469       C  0.30050809  0.82923545  0.55813227    -0.28600
N1470       N  0.30254346  0.83381587  0.47229392    -0.45200
C1471       C  0.32061604  0.83281894  0.45836374    -0.04500
C1472       C  0.33979780  0.82922438  0.47177983    -0.21900
H1473       H  0.36197629  0.82381614  0.51693623     0.19900
H1474       H  0.27906142  0.83356039  0.51389330     0.18700
H1475       H  0.28351626  0.83180881  0.56351389     0.15000
H1476       H  0.35667074  0.82793096  0.46557232     0.14900
H1477       H  0.35415218  0.82401212  0.56547975     0.33000
H1478       H  0.28614023  0.83644929  0.46707244     0.35800
C1479       C  0.24296742  0.76053901  0.37976549     0.21400
C1480       C  0.23908943  0.73797206  0.38300607    -0.38500
C1481       C  0.21702554  0.73127955  0.38064411     0.20400
C1482       C  0.20005683  0.74595863  0.37556633     0.23000
C1483       C  0.20395365  0.76861164  0.37231300    -0.39000
C1484       C  0.22611698  0.77532505  0.37458367     0.21800
N1485       N  0.26247394  0.77092216  0.38142471    -0.32300
C1486       C  0.25814891  0.79250620  0.37730209    -0.09800
C1487       C  0.23563137  0.79598424  0.37290356    -0.28600
N1488       N  0.18048876  0.73542360  0.37469385    -0.45200
C1489       C  0.18512996  0.71392582  0.37917518    -0.04500
C1490       C  0.20773548  0.71069751  0.38295399    -0.21900
H1491       H  0.25229044  0.72648486  0.38718516     0.19900
H1492       H  0.19071357  0.78014330  0.36844531     0.18700
H1493       H  0.22734570  0.81149074  0.36933032     0.15000
H1494       H  0.21617564  0.69540657  0.38715690     0.14900
H1495       H  0.27779397  0.76378010  0.38543149     0.33000
H1496       H  0.16495045  0.74241812  0.37144661     0.35800
C1497       C  0.49182383  0.76338965  0.13955052     0.21400
C1498       C  0.51048443  0.77645960  0.13517660    -0.38500
C1499       C  0.53094137  0.76562196  0.13647817     0.20400
C1500       C  0.53277976  0.74341001  0.14182957     0.23000
C1501       C  0.51400982  0.73024454  0.14621078    -0.39000
C1502       C  0.49340438  0.74112875  0.14478468     0.21800
N1503       N  0.47062355  0.77003373  0.13950840    -0.32300
C1504       C  0.45838286  0.75196695  0.14464179    -0.09800
C1505       C  0.47198294  0.73350472  0.14804414    -0.28600
N1506       N  0.55425731  0.73733965  0.14271263    -0.45200
C1507       C  0.56603665  0.75589205  0.13799743    -0.04500
C1508       C  0.55204346  0.77379178  0.13386999    -0.21900
H1509       H  0.50916727  0.79388699  0.13122336     0.19900
H1510       H  0.51535830  0.71289953  0.15054968     0.18700
H1511       H  0.46691967  0.71688207  0.15242538     0.15000
H1512       H  0.55671252  0.79066531  0.13012432     0.14900
H1513       H  0.46480958  0.78596840  0.13614456     0.33000
H1514       H  0.56052380  0.72172680  0.14684173     0.35800
C1515       C  0.37025030  0.78278763  0.03918537     0.21400
C1516       C  0.37502130  0.79477592  0.01856259    -0.38500
C1517       C  0.36987044  0.78419215  0.99730075     0.20400
C1518       C  0.36075147  0.76327360  0.99679944     0.23000
C1519       C  0.35579474  0.75147143  0.01726090    -0.39000
C1520       C  0.36092387  0.76198276  0.03833876     0.21800
N1521       N  0.37542088  0.78808911  0.06149494    -0.32300
C1522       C  0.36944740  0.77039620  0.07475076    -0.09800
C1523       C  0.36023108  0.75394991  0.06085743    -0.28600
N1524       N  0.35974316  0.75568545  0.97481172    -0.45200
C1525       C  0.36823992  0.77175652  0.96096100    -0.04500
C1526       C  0.37447212  0.79001206  0.97429134    -0.21900
H1527       H  0.38306514  0.81069882  0.01900598     0.19900
H1528       H  0.34941200  0.73481261  0.01678728     0.18700
H1529       H  0.35488702  0.73770941  0.06637013     0.15000
H1530       H  0.38285803  0.80471377  0.96821910     0.14900
H1531       H  0.38359123  0.80227135  0.06716153     0.33000
H1532       H  0.35466172  0.73998967  0.96965241     0.35800
C1533       C  0.32499089  0.67085498  0.15954783     0.21400
C1534       C  0.31962468  0.64886890  0.15438446    -0.38500
C1535       C  0.29770289  0.64260253  0.15920593     0.20400
C1536       C  0.28239464  0.65718042  0.16843520     0.23000
C1537       C  0.28776312  0.67904648  0.17367577    -0.39000
C1538       C  0.30957783  0.68529493  0.16881233     0.21800
N1539       N  0.34414683  0.68136077  0.15506530    -0.32300
C1540       C  0.34071394  0.70262712  0.16133438    -0.09800
C1541       C  0.31941845  0.70566059  0.17010029    -0.28600
N1542       N  0.26229247  0.64790425  0.16965185    -0.45200
C1543       C  0.26470523  0.62727759  0.16110312    -0.04500
C1544       C  0.28660265  0.62320948  0.15460473    -0.21900
H1545       H  0.33139942  0.63771329  0.14645814     0.19900
H1546       H  0.27560064  0.69058546  0.18023809     0.18700
H1547       H  0.31186229  0.72092394  0.17574844     0.15000
H1548       H  0.29318198  0.60856914  0.14638121     0.14900
H1549       H  0.35829101  0.67473316  0.14729168     0.33000
H1550       H  0.24762612  0.65545467  0.17507380     0.35800
C1551       C  0.35858104  0.81052523  0.24167940     0.21400
C1552       C  0.34450683  0.82463275  0.25419357    -0.38500
C1553       C  0.34672107  0.82396577  0.27867613     0.20400
C1554       C  0.36177974  0.81030609  0.28997856     0.23000
C1555       C  0.37588767  0.79619200  0.27745454    -0.39000
C1556       C  0.37367922  0.79686372  0.25292542     0.21800
N1557       N  0.35877173  0.80709940  0.21838474    -0.32300
C1558       C  0.37401273  0.79102087  0.21473954    -0.09800
C1559       C  0.38374117  0.78436099  0.23587318    -0.28600
N1560       N  0.35967360  0.81187563  0.31342064    -0.45200
C1561       C  0.34306158  0.82658073  0.31698783    -0.04500
C1562       C  0.33470180  0.83450452  0.29573172    -0.21900
H1563       H  0.33228965  0.83494723  0.24554207     0.19900
H1564       H  0.38732040  0.78506868  0.28617418     0.18700
H1565       H  0.39591479  0.77144676  0.23849623     0.15000
H1566       H  0.32101048  0.84581932  0.29311535     0.14900
H1567       H  0.34854790  0.81460718  0.20586383     0.33000
H1568       H  0.36834226  0.80287533  0.32613096     0.35800
loop_ 
_geom_bond_atom_site_label_1 
_geom_bond_atom_site_label_2 
_geom_bond_distance 
_geom_bond_site_symmetry_2 
_ccdc_geom_bond_type 
O1            C4   1.269       .  A
O1           Cd6   2.482       .  S
C2           O11   1.264       .  A
C2            O7   1.268       .  A
C2         C1504   1.475       .  S
O3            C9   1.269       .  A
O3           Cd6   2.553       .  S
C4           O12   1.266       .  A
C4         C1540   1.470       .  S
C5           O10   1.271       .  A
C5            O8   1.264       .  A
C5         C1558   1.481       .  S
Cd6          O13   2.442       .  S
Cd6          O12   2.438       .  S
Cd6          O11   2.442       .  S
Cd6           O7   2.513       .  S
Cd6          O10   2.527       .  S
Cd6           O8   2.456       .  S
C9           O13   1.261       .  A
C9         C1522   1.481       .  S
O14          C17   1.267       .  A
O14         Cd19   2.476       .  S
C15          O24   1.264       .  A
C15          O20   1.268       .  A
C15        C1486   1.468       .  S
O16          C22   1.271       .  A
O16         Cd19   2.526       .  S
C17          O25   1.267       .  A
C17        C1450   1.470       .  S
C18          O23   1.272       .  A
C18          O21   1.263       .  A
C18        C1471   1.479       .  S
Cd19         O26   2.427       .  S
Cd19         O25   2.439       .  S
Cd19         O24   2.424       .  S
Cd19         O20   2.484       .  S
Cd19         O23   2.548       .  S
Cd19         O21   2.410       .  S
C22          O26   1.263       .  A
C22        C1561   1.477       .  S
O27          C30   1.266       .  A
O27         Cd32   2.484       .  S
C28          O37   1.265       .  A
C28          O33   1.268       .  A
C28        C1543   1.466       .  S
O29          C35   1.268       .  A
O29         Cd32   2.525       .  S
C30          O38   1.264       .  A
C30        C1396   1.466       .  S
C31          O36   1.270       .  A
C31          O34   1.263       .  A
C31        C1435   1.479       .  S
Cd32         O39   2.446       .  S
Cd32         O38   2.430       .  S
Cd32         O37   2.425       .  S
Cd32         O33   2.473       .  S
Cd32         O36   2.522       .  S
Cd32         O34   2.443       .  S
C35          O39   1.261       .  A
C35        C1414   1.476       .  S
O40          C43   1.270       .  A
O40         Cd45   2.464       .  S
C41          O50   1.267       .  A
C41          O46   1.270       .  A
C41        C1489   1.469       .  S
O42          C48   1.263       .  A
O42         Cd45   2.391       .  S
C43          O51   1.266       .  A
C43        C1363   1.467       .  S
C44          O49   1.272       .  A
C44          O47   1.264       .  A
C44        C1432   1.478       .  S
Cd45         O52   2.525       .  S
Cd45         O51   2.426       .  S
Cd45         O50   2.436       .  S
Cd45         O46   2.465       .  S
Cd45         O49   2.512       .  S
Cd45         O47   2.439       .  S
C48          O52   1.273       .  A
C48        C1378   1.473       .  S
O53          C56   1.267       .  A
O53         Cd58   2.466       .  S
C54          O63   1.267       .  A
C54          O59   1.269       .  A
C54        C1324   1.468       .  S
O55          C61   1.270       .  A
O55         Cd58   2.528       .  S
C56          O64   1.264       .  A
C56        C1306   1.466       .  S
C57          O62   1.272       .  A
C57          O60   1.263       .  A
C57        C1342   1.478       .  S
Cd58         O65   2.437       .  S
Cd58         O64   2.440       .  S
Cd58         O63   2.429       .  S
Cd58         O59   2.472       .  S
Cd58         O62   2.510       .  S
Cd58         O60   2.444       .  S
C61          O65   1.262       .  A
C61        C1525   1.477       .  S
O66          C69   1.268       .  A
O66         Cd71   2.475       .  S
C67          O76   1.264       .  A
C67          O72   1.269       .  A
C67        C1291   1.467       .  S
O68          C74   1.272       .  A
O68         Cd71   2.554       .  S
C69          O77   1.267       .  A
C69        C1270   1.469       .  S
C70          O75   1.271       .  A
C70          O73   1.263       .  A
C70        C1345   1.478       .  S
Cd71         O78   2.419       .  S
Cd71         O77   2.438       .  S
Cd71         O76   2.406       .  S
Cd71         O72   2.490       .  S
Cd71         O75   2.521       .  S
Cd71         O73   2.438       .  S
C74          O78   1.263       .  A
C74        C1468   1.482       .  S
O79          C82   1.269       .  A
O79         Cd84   2.463       .  S
C80          O89   1.265       .  A
C80          O85   1.268       .  A
C80        C1234   1.473       .  S
O81          C87   1.269       .  A
O81         Cd84   2.522       .  S
C82          O90   1.266       .  A
C82        C1327   1.466       .  S
C83          O88   1.270       .  A
C83          O86   1.263       .  A
C83        C1252   1.476       .  S
Cd84         O91   2.445       .  S
Cd84         O90   2.425       .  S
Cd84         O89   2.437       .  S
Cd84         O85   2.495       .  S
Cd84         O88   2.513       .  S
Cd84         O86   2.445       .  S
C87          O91   1.262       .  A
C87        C1417   1.477       .  S
O92          C95   1.270       .  A
O92         Cd97   2.464       .  S
C93         O102   1.265       .  A
C93          O98   1.268       .  A
C93        C1219   1.469       .  S
O94         C100   1.263       .  A
O94         Cd97   2.399       .  S
C95         O103   1.267       .  A
C95        C1288   1.470       .  S
C96         O101   1.263       .  A
C96          O99   1.272       .  A
C96        C1255   1.474       .  S
Cd97        O104   2.516       .  S
Cd97        O103   2.442       .  S
Cd97        O102   2.441       .  S
Cd97         O98   2.477       .  S
Cd97        O101   2.424       .  S
Cd97         O99   2.511       .  S
C100        O104   1.272       .  A
C100       C1381   1.471       .  S
O105        C108   1.269       .  A
O105       Cd110   2.467       .  S
C106        O115   1.265       .  A
C106        O111   1.268       .  A
C106       C1147   1.470       .  S
O107        C113   1.272       .  A
O107       Cd110   2.538       .  S
C108        O116   1.266       .  A
C108       C1180   1.467       .  S
C109        O114   1.272       .  A
C109        O112   1.263       .  A
C109       C1198   1.478       .  S
Cd110       O117   2.422       .  S
Cd110       O116   2.431       .  S
Cd110       O115   2.440       .  S
Cd110       O111   2.479       .  S
Cd110       O114   2.515       .  S
Cd110       O112   2.446       .  S
C113        O117   1.263       .  A
C113       C1162   1.478       .  S
O118        C121   1.269       .  A
O118       Cd123   2.482       .  S
C119        O128   1.265       .  A
C119        O124   1.267       .  A
C119       C1360   1.470       .  S
O120        C126   1.269       .  A
O120       Cd123   2.531       .  S
C121        O129   1.266       .  A
C121       C1126   1.469       .  S
C122        O127   1.269       .  A
C122        O125   1.263       .  A
C122       C1201   1.476       .  S
Cd123       O130   2.431       .  S
Cd123       O129   2.428       .  S
Cd123       O128   2.448       .  S
Cd123       O124   2.481       .  S
Cd123       O127   2.512       .  S
Cd123       O125   2.443       .  S
C126        O130   1.263       .  A
C126       C1111   1.477       .  S
O131        C134   1.268       .  A
O131       Cd136   2.466       .  S
C132        O141   1.267       .  A
C132        O137   1.266       .  A
C132       C1507   1.473       .  S
O133        C139   1.271       .  A
O133       Cd136   2.515       .  S
C134        O142   1.265       .  A
C134       C1183   1.467       .  S
C135        O140   1.271       .  A
C135        O138   1.261       .  A
C135       C1075   1.473       .  S
Cd136       O143   2.436       .  S
Cd136       O142   2.436       .  S
Cd136       O141   2.458       .  S
Cd136       O137   2.480       .  S
Cd136       O140   2.535       .  S
Cd136       O138   2.401       .  S
C139        O143   1.263       .  A
C139       C1090   1.475       .  S
O144        C147   1.268       .  A
O144       Cd149   2.478       .  S
C145        O154   1.265       .  A
C145        O150   1.269       .  A
C145       C1129   1.471       .  S
O146        C152   1.271       .  A
O146       Cd149   2.535       .  S
C147        O155   1.266       .  A
C147       C1036   1.473       .  S
C148        O153   1.272       .  A
C148        O151   1.262       .  A
C148       C1093   1.474       .  S
Cd149       O156   2.406       .  S
Cd149       O155   2.461       .  S
Cd149       O154   2.427       .  S
Cd149       O150   2.496       .  S
Cd149       O153   2.527       .  S
Cd149       O151   2.407       .  S
C152        O156   1.263       .  A
C152       C1054   1.475       .  S
O157        C160   1.268       .  A
O157       Cd162   2.476       .  S
C158        O167   1.266       .  A
C158        O163   1.268       .  A
C158       C1000   1.468       .  S
O159        C165   1.271       .  A
O159       Cd162   2.498       .  S
C160        O168   1.265       .  A
C160       C1309   1.467       .  S
C161        O166   1.270       .  A
C161        O164   1.262       .  A
C161       C1072   1.473       .  S
Cd162       O169   2.429       .  S
Cd162       O168   2.431       .  S
Cd162       O167   2.441       .  S
Cd162       O163   2.459       .  S
Cd162       O166   2.520       .  S
Cd162       O164   2.422       .  S
C165        O169   1.263       .  A
C165       C1018   1.474       .  S
O170        C173   1.269       .  A
O170       Cd175   2.469       .  S
C171        O180   1.267       .  A
C171        O176   1.269       .  A
C171        C964   1.472       .  S
O172        C178   1.273       .  A
O172       Cd175   2.530       .  S
C173        O181   1.265       .  A
C173        C982   1.470       .  S
C174        O179   1.272       .  A
C174        O177   1.264       .  A
C174       C1021   1.479       .  S
Cd175       O182   2.412       .  S
Cd175       O181   2.445       .  S
Cd175       O180   2.444       .  S
Cd175       O176   2.481       .  S
Cd175       O179   2.527       .  S
Cd175       O177   2.439       .  S
C178        O182   1.262       .  A
C178       C1057   1.476       .  S
O183        C186   1.268       .  A
O183       Cd188   2.474       .  S
C184        O193   1.266       .  A
C184        O189   1.268       .  A
C184       C1003   1.473       .  S
O185        C191   1.271       .  A
O185       Cd188   2.557       .  S
C186        O194   1.265       .  A
C186        C928   1.466       .  S
C187        O192   1.272       .  A
C187        O190   1.263       .  A
C187        C946   1.474       .  S
Cd188       O195   2.412       .  S
Cd188       O194   2.429       .  S
Cd188       O193   2.460       .  S
Cd188       O189   2.480       .  S
Cd188       O192   2.508       .  S
Cd188       O190   2.427       .  S
C191        O195   1.262       .  A
C191       C1165   1.480       .  S
O196        C199   1.268       .  A
O196       Cd201   2.486       .  S
C197        O206   1.266       .  A
C197        O202   1.270       .  A
C197        C985   1.472       .  S
O198        C204   1.268       .  A
O198       Cd201   2.533       .  S
C199        O207   1.264       .  A
C199       C1216   1.469       .  S
C200        O205   1.270       .  A
C200        O203   1.263       .  A
C200        C949   1.474       .  S
Cd201       O208   2.432       .  S
Cd201       O207   2.438       .  S
Cd201       O206   2.439       .  S
Cd201       O202   2.484       .  S
Cd201       O205   2.514       .  S
Cd201       O203   2.429       .  S
C204        O208   1.262       .  A
C204       C1108   1.477       .  S
O209        C212   1.268       .  A
O209       Cd214   2.511       .  S
C210        O219   1.267       .  A
C210        O215   1.269       .  A
C210        C895   1.466       .  S
O211        C217   1.271       .  A
O211       Cd214   2.554       .  S
C212        O220   1.264       .  A
C212       C1453   1.471       .  S
C213        O218   1.272       .  A
C213        O216   1.263       .  A
C213        C910   1.482       .  S
Cd214       O221   2.435       .  S
Cd214       O220   2.415       .  S
Cd214       O219   2.435       .  S
Cd214       O215   2.460       .  S
Cd214       O218   2.535       .  S
Cd214       O216   2.443       .  S
C217        O221   1.262       .  A
C217        C877   1.481       .  S
O222        C225   1.268       .  A
O222       Cd227   2.493       .  S
C223        O232   1.266       .  A
C223        O228   1.266       .  A
C223        C820   1.469       .  S
O224        C230   1.270       .  A
O224       Cd227   2.522       .  S
C225        O233   1.264       .  A
C225        C859   1.466       .  S
C226        O231   1.269       .  A
C226        O229   1.262       .  A
C226        C841   1.479       .  S
Cd227       O234   2.447       .  S
Cd227       O233   2.412       .  S
Cd227       O232   2.446       .  S
Cd227       O228   2.481       .  S
Cd227       O231   2.548       .  S
Cd227       O229   2.427       .  S
C230        O234   1.263       .  A
C230        C913   1.479       .  S
O235        C238   1.269       .  A
O235       Cd240   2.470       .  S
C236        O245   1.264       .  A
C236        O241   1.266       .  A
C236        C766   1.467       .  S
O237        C243   1.267       .  A
O237       Cd240   2.517       .  S
C238        O246   1.266       .  A
C238        C892   1.466       .  S
C239        O244   1.268       .  A
C239        O242   1.263       .  A
C239        C802   1.475       .  S
Cd240       O247   2.436       .  S
Cd240       O246   2.425       .  S
Cd240       O245   2.427       .  S
Cd240       O241   2.492       .  S
Cd240       O244   2.507       .  S
Cd240       O242   2.449       .  S
C243        O247   1.261       .  A
C243        C787   1.472       .  S
O248        C251   1.267       .  A
O248       Cd253   2.463       .  S
C249        O258   1.264       .  A
C249        O254   1.266       .  A
C249       C1399   1.462       .  S
O250        C256   1.269       .  A
O250       Cd253   2.549       .  S
C251        O259   1.266       .  A
C251        C856   1.466       .  S
C252        O257   1.271       .  A
C252        O255   1.263       .  A
C252        C805   1.478       .  S
Cd253       O260   2.465       .  S
Cd253       O259   2.435       .  S
Cd253       O258   2.428       .  S
Cd253       O254   2.459       .  S
Cd253       O257   2.512       .  S
Cd253       O255   2.455       .  S
C256        O260   1.261       .  A
C256        C748   1.486       .  S
O261        C264   1.266       .  A
O261       Cd266   2.467       .  S
C262        O271   1.266       .  A
C262        O267   1.269       .  A
C262        C712   1.469       .  S
O263        C269   1.271       .  A
O263       Cd266   2.507       .  S
C264        O272   1.265       .  A
C264        C694   1.467       .  S
C265        O270   1.271       .  A
C265        O268   1.263       .  A
C265        C838   1.479       .  S
Cd266       O273   2.421       .  S
Cd266       O272   2.445       .  S
Cd266       O271   2.423       .  S
Cd266       O267   2.480       .  S
Cd266       O270   2.538       .  S
Cd266       O268   2.425       .  S
C269        O273   1.263       .  A
C269        C730   1.472       .  S
O274        C277   1.269       .  A
O274       Cd279   2.483       .  S
C275        O284   1.264       .  A
C275        O280   1.267       .  A
C275       C1273   1.468       .  S
O276        C282   1.270       .  A
O276       Cd279   2.547       .  S
C277        O285   1.266       .  A
C277        C679   1.471       .  S
C278        O283   1.271       .  A
C278        O281   1.263       .  A
C278        C733   1.471       .  S
Cd279       O286   2.422       .  S
Cd279       O285   2.428       .  S
Cd279       O284   2.432       .  S
Cd279       O280   2.480       .  S
Cd279       O283   2.498       .  S
Cd279       O281   2.434       .  S
C282        O286   1.261       .  A
C282        C874   1.479       .  S
O287        C290   1.268       .  A
O287       Cd292   2.497       .  S
C288        O297   1.266       .  A
C288        O293   1.269       .  A
C288        C715   1.472       .  S
O289        C295   1.269       .  A
O289       Cd292   2.546       .  S
C290        O298   1.265       .  A
C290       C1237   1.474       .  S
C291        O296   1.271       .  A
C291        O294   1.263       .  A
C291        C658   1.483       .  S
Cd292       O299   2.468       .  S
Cd292       O298   2.448       .  S
Cd292       O297   2.445       .  S
Cd292       O293   2.485       .  S
Cd292       O296   2.532       .  S
Cd292       O294   2.459       .  S
C295        O299   1.263       .  A
C295        C751   1.486       .  S
O300        C303   1.267       .  A
O300       Cd305   2.484       .  S
C301        O310   1.267       .  A
C301        O306   1.269       .  A
C301        C676   1.474       .  S
O302        C308   1.267       .  A
O302       Cd305   2.529       .  S
C303        O311   1.264       .  A
C303        C640   1.472       .  S
C304        O309   1.270       .  A
C304        O307   1.262       .  A
C304        C661   1.481       .  S
Cd305       O312   2.461       .  S
Cd305       O311   2.459       .  S
Cd305       O310   2.448       .  S
Cd305       O306   2.490       .  S
Cd305       O309   2.523       .  S
Cd305       O307   2.460       .  S
C308        O312   1.262       .  A
C308        C784   1.478       .  S
O313        C316   1.268       .  A
O313       Cd318   2.467       .  S
C314        O323   1.265       .  A
C314        O319   1.270       .  A
C314        C604   1.467       .  S
O315        C321   1.272       .  A
O315       Cd318   2.533       .  S
C316        O324   1.266       .  A
C316       C1144   1.470       .  S
C317        O322   1.272       .  A
C317        O320   1.263       .  A
C317        C622   1.475       .  S
Cd318       O325   2.416       .  S
Cd318       O324   2.445       .  S
Cd318       O323   2.414       .  S
Cd318       O319   2.480       .  S
Cd318       O322   2.511       .  S
Cd318       O320   2.429       .  S
C321        O325   1.263       .  A
C321        C589   1.477       .  S
O326        C329   1.266       .  A
O326       Cd331   2.493       .  S
C327        O336   1.265       .  A
C327        O332   1.269       .  A
C327        C568   1.473       .  S
O328        C334   1.267       .  A
O328       Cd331   2.524       .  S
C329        O337   1.263       .  A
C329        C769   1.470       .  S
C330        O335   1.268       .  A
C330        O333   1.262       .  A
C330        C625   1.475       .  S
Cd331       O338   2.450       .  S
Cd331       O337   2.450       .  S
Cd331       O336   2.439       .  S
Cd331       O332   2.497       .  S
Cd331       O335   2.519       .  S
Cd331       O333   2.434       .  S
C334        O338   1.264       .  A
C334        C553   1.477       .  S
O339        C342   1.269       .  A
O339       Cd344   2.474       .  S
C340        O349   1.265       .  A
C340        O345   1.267       .  A
C340        C823   1.469       .  S
O341        C347   1.268       .  A
O341       Cd344   2.537       .  S
C342        O350   1.266       .  A
C342        C607   1.468       .  S
C343        O348   1.269       .  A
C343        O346   1.262       .  A
C343        C535   1.473       .  S
Cd344       O351   2.450       .  S
Cd344       O350   2.428       .  S
Cd344       O349   2.425       .  S
Cd344       O345   2.494       .  S
Cd344       O348   2.501       .  S
Cd344       O346   2.451       .  S
C347        O351   1.262       .  A
C347        C514   1.480       .  S
O352        C355   1.269       .  A
O352       Cd357   2.474       .  S
C353        O362   1.265       .  A
C353        O358   1.268       .  A
C353       C1039   1.468       .  S
O354        C360   1.271       .  A
O354       Cd357   2.550       .  S
C355        O363   1.267       .  A
C355        C571   1.467       .  S
C356        O361   1.272       .  A
C356        O359   1.263       .  A
C356        C532   1.473       .  S
Cd357       O364   2.421       .  S
Cd357       O363   2.422       .  S
Cd357       O362   2.422       .  S
Cd357       O358   2.482       .  S
Cd357       O361   2.512       .  S
Cd357       O359   2.418       .  S
C360        O364   1.264       .  A
C360        C499   1.482       .  S
O365        C368   1.268       .  A
O365       Cd370   2.469       .  S
C366        O375   1.265       .  A
C366        O371   1.267       .  A
C366        C931   1.467       .  S
O367        C373   1.272       .  A
O367       Cd370   2.532       .  S
C368        O376   1.266       .  A
C368        C460   1.466       .  S
C369        O374   1.272       .  A
C369        O372   1.264       .  A
C369        C478   1.479       .  S
Cd370       O377   2.410       .  S
Cd370       O376   2.421       .  S
Cd370       O375   2.443       .  S
Cd370       O371   2.467       .  S
Cd370       O374   2.525       .  S
Cd370       O372   2.427       .  S
C373        O377   1.262       .  A
C373        C586   1.475       .  S
O378        C381   1.270       .  A
O378       Cd383   2.495       .  S
C379        O388   1.264       .  A
C379        O384   1.267       .  A
C379        C643   1.469       .  S
O380        C386   1.268       .  A
O380       Cd383   2.535       .  S
C381        O389   1.265       .  A
C381        C442   1.470       .  S
C382        O387   1.269       .  A
C382        O385   1.263       .  A
C382        C481   1.477       .  S
Cd383       O390   2.433       .  S
Cd383       O389   2.427       .  S
Cd383       O388   2.432       .  S
Cd383       O384   2.486       .  S
Cd383       O387   2.507       .  S
Cd383       O385   2.463       .  S
C386        O390   1.263       .  A
C386        C550   1.477       .  S
O391        C394   1.266       .  A
O391       Cd396   2.489       .  S
C392        O401   1.266       .  A
C392        O397   1.269       .  A
C392        C463   1.470       .  S
O393        C399   1.267       .  A
O393       Cd396   2.524       .  S
C394        O402   1.263       .  A
C394        C697   1.468       .  S
C395        O400   1.269       .  A
C395        O398   1.261       .  A
C395        C424   1.470       .  S
Cd396       O403   2.461       .  S
Cd396       O402   2.437       .  S
Cd396       O401   2.432       .  S
Cd396       O397   2.482       .  S
Cd396       O400   2.517       .  S
Cd396       O398   2.419       .  S
C399        O403   1.263       .  A
C399        C517   1.479       .  S
O404        C407   1.269       .  A
O404       Cd409   2.485       .  S
C405        O414   1.266       .  A
C405        O410   1.269       .  A
C405        C445   1.467       .  S
O406        C412   1.272       .  A
O406       Cd409   2.547       .  S
C407        O415   1.266       .  A
C407        C967   1.470       .  S
C408        O413   1.272       .  A
C408        O411   1.263       .  A
C408        C427   1.472       .  S
Cd409       O416   2.412       .  S
Cd409       O415   2.424       .  S
Cd409       O414   2.426       .  S
Cd409       O410   2.468       .  S
Cd409       O413   2.503       .  S
Cd409       O411   2.423       .  S
C412        O416   1.263       .  A
C412        C496   1.481       .  S
C417        C422   1.384       .  A
C417        C418   1.403       .  A
C417        N423   1.339       .  A
C418        C419   1.400       .  A
C418        H429   1.082       .  S
C419        C428   1.380       .  A
C419        C420   1.384       .  A
C420        C421   1.406       .  A
C420        N426   1.342       .  A
C421        C422   1.404       .  A
C421        H430   1.082       .  S
C422        C425   1.384       .  A
N423        C424   1.355       .  A
N423        H433   1.044       .  S
C424        C425   1.396       .  A
C425        H431   1.082       .  S
N426        C427   1.357       .  A
N426        H434   1.045       .  S
C427        C428   1.394       .  A
C428        H432   1.082       .  S
C435        C440   1.385       .  A
C435        C436   1.400       .  A
C435        N441   1.340       .  A
C436        C437   1.399       .  A
C436        H447   1.083       .  S
C437        C446   1.374       .  A
C437        C438   1.385       .  A
C438        C439   1.406       .  A
C438        N444   1.345       .  A
C439        C440   1.405       .  A
C439        H448   1.082       .  S
C440        C443   1.383       .  A
N441        C442   1.354       .  A
N441        H451   1.045       .  S
C442        C443   1.397       .  A
C443        H449   1.082       .  S
N444        C445   1.356       .  A
N444        H452   1.044       .  S
C445        C446   1.393       .  A
C446        H450   1.083       .  S
C453        C458   1.385       .  A
C453        C454   1.407       .  A
C453        N459   1.346       .  A
C454        C455   1.407       .  A
C454        H465   1.082       .  S
C455        C464   1.383       .  A
C455        C456   1.385       .  A
C456        C457   1.399       .  A
C456        N462   1.339       .  A
C457        C458   1.397       .  A
C457        H466   1.082       .  S
C458        C461   1.372       .  A
N459        C460   1.357       .  A
N459        H469   1.044       .  S
C460        C461   1.391       .  A
C461        H467   1.083       .  S
N462        C463   1.353       .  A
N462        H470   1.044       .  S
C463        C464   1.398       .  A
C464        H468   1.082       .  S
C471        C476   1.384       .  A
C471        C472   1.404       .  A
C471        N477   1.342       .  A
C472        C473   1.402       .  A
C472        H483   1.082       .  S
C473        C482   1.381       .  A
C473        C474   1.384       .  A
C474        C475   1.410       .  A
C474        N480   1.346       .  A
C475        C476   1.408       .  A
C475        H484   1.082       .  S
C476        C479   1.388       .  A
N477        C478   1.356       .  A
N477        H487   1.045       .  S
C478        C479   1.399       .  A
C479        H485   1.082       .  S
N480        C481   1.359       .  A
N480        H488   1.044       .  S
C481        C482   1.395       .  A
C482        H486   1.082       .  S
C489        C494   1.384       .  A
C489        C490   1.398       .  A
C489        N495   1.339       .  A
C490        C491   1.397       .  A
C490        H501   1.082       .  S
C491        C500   1.371       .  A
C491        C492   1.383       .  A
C492        C493   1.416       .  A
C492        N498   1.355       .  A
C493        C494   1.416       .  A
C493        H502   1.082       .  S
C494        C497   1.394       .  A
N495        C496   1.354       .  A
N495        H505   1.044       .  S
C496        C497   1.403       .  A
C497        H503   1.082       .  S
N498        C499   1.362       .  A
N498        H506   1.045       .  S
C499        C500   1.392       .  A
C500        H504   1.083       .  S
C507        C512   1.384       .  A
C507        C508   1.411       .  A
C507        N513   1.351       .  A
C508        C509   1.410   1_554  A
C508        H519   1.082       .  S
C509        C518   1.387       .  A
C509        C510   1.384       .  A
C510        C511   1.402   1_556  A
C510        N516   1.343       .  A
C511        C512   1.402       .  A
C511        H520   1.082       .  S
C512        C515   1.376       .  A
N513        C514   1.359       .  A
N513        H523   1.045       .  S
C514        C515   1.395       .  A
C515        H521   1.083       .  S
N516        C517   1.355       .  A
N516        H524   1.045       .  S
C517        C518   1.400       .  A
C518        H522   1.082       .  S
C525        C530   1.384       .  A
C525        C526   1.404       .  A
C525        N531   1.341       .  A
C526        C527   1.401       .  A
C526        H537   1.082       .  S
C527        C536   1.380       .  A
C527        C528   1.384       .  A
C528        C529   1.407       .  A
C528        N534   1.344       .  A
C529        C530   1.404       .  A
C529        H538   1.082       .  S
C530        C533   1.384       .  A
N531        C532   1.356       .  A
N531        H541   1.044       .  S
C532        C533   1.396       .  A
C533        H539   1.082       .  S
N534        C535   1.357       .  A
N534        H542   1.045       .  S
C535        C536   1.394       .  A
C536        H540   1.082       .  S
C543        C548   1.384       .  A
C543        C544   1.413       .  A
C543        N549   1.352       .  A
C544        C545   1.413       .  A
C544        H555   1.082       .  S
C545        C554   1.389       .  A
C545        C546   1.385       .  A
C546        C547   1.398       .  A
C546        N552   1.341       .  A
C547        C548   1.397       .  A
C547        H556   1.082       .  S
C548        C551   1.372       .  A
N549        C550   1.360       .  A
N549        H559   1.045       .  S
C550        C551   1.391       .  A
C551        H557   1.083       .  S
N552        C553   1.353       .  A
N552        H560   1.045       .  S
C553        C554   1.401       .  A
C554        H558   1.082       .  S
C561        C566   1.385       .  A
C561        C562   1.400       .  A
C561        N567   1.340       .  A
C562        C563   1.398       .  A
C562        H573   1.082       .  S
C563        C572   1.373       .  A
C563        C564   1.385       .  A
C564        C565   1.407       .  A
C564        N570   1.346       .  A
C565        C566   1.407       .  A
C565        H574   1.082       .  S
C566        C569   1.383       .  A
N567        C568   1.354       .  A
N567        H577   1.045       .  S
C568        C569   1.398       .  A
C569        H575   1.082       .  S
N570        C571   1.357       .  A
N570        H578   1.044       .  S
C571        C572   1.392       .  A
C572        H576   1.083       .  S
C579        C584   1.384       .  A
C579        C580   1.399   1_556  A
C579        N585   1.339       .  A
C580        C581   1.398       .  A
C580        H591   1.083       .  S
C581        C590   1.372       .  A
C581        C582   1.384       .  A
C582        C583   1.411       .  A
C582        N588   1.351       .  A
C583        C584   1.410   1_554  A
C583        H592   1.082       .  S
C584        C587   1.389       .  A
N585        C586   1.354       .  A
N585        H595   1.045       .  S
C586        C587   1.399       .  A
C587        H593   1.082       .  S
N588        C589   1.359       .  A
N588        H596   1.045       .  S
C589        C590   1.394       .  A
C590        H594   1.083       .  S
C597        C602   1.385       .  A
C597        C598   1.400       .  A
C597        N603   1.339       .  A
C598        C599   1.398       .  A
C598        H609   1.083       .  S
C599        C608   1.373       .  A
C599        C600   1.385       .  A
C600        C601   1.406       .  A
C600        N606   1.346       .  A
C601        C602   1.406       .  A
C601        H610   1.082       .  S
C602        C605   1.383       .  A
N603        C604   1.354       .  A
N603        H613   1.045       .  S
C604        C605   1.396       .  A
C605        H611   1.082       .  S
N606        C607   1.357       .  A
N606        H614   1.044       .  S
C607        C608   1.393       .  A
C608        H612   1.083       .  S
C615        C620   1.384       .  A
C615        C616   1.408       .  A
C615        N621   1.343       .  A
C616        C617   1.406       .  A
C616        H627   1.082       .  S
C617        C626   1.386       .  A
C617        C618   1.384       .  A
C618        C619   1.404       .  A
C618        N624   1.341       .  A
C619        C620   1.401       .  A
C619        H628   1.082       .  S
C620        C623   1.382       .  A
N621        C622   1.358       .  A
N621        H631   1.045       .  S
C622        C623   1.395       .  A
C623        H629   1.082       .  S
N624        C625   1.355       .  A
N624        H632   1.044       .  S
C625        C626   1.398       .  A
C626        H630   1.082       .  S
C633        C638   1.385       .  A
C633        C634   1.403       .  A
C633        N639   1.343       .  A
C634        C635   1.402   1_455  A
C634        H645   1.083       .  S
C635        C644   1.375       .  A
C635        C636   1.385       .  A
C636        C637   1.404   1_655  A
C636        N642   1.345       .  A
C637        C638   1.404       .  A
C637        H646   1.082       .  S
C638        C641   1.379       .  A
N639        C640   1.356       .  A
N639        H649   1.045       .  S
C640        C641   1.395       .  A
C641        H647   1.082       .  S
N642        C643   1.355       .  A
N642        H650   1.044       .  S
C643        C644   1.394       .  A
C644        H648   1.083       .  S
C651        C656   1.384       .  A
C651        C652   1.407       .  A
C651        N657   1.350       .  A
C652        C653   1.408       .  A
C652        H663   1.082       .  S
C653        C662   1.381       .  A
C653        C654   1.384       .  A
C654        C655   1.405       .  A
C654        N660   1.348       .  A
C655        C656   1.406       .  A
C655        H664   1.082       .  S
C656        C659   1.379       .  A
N657        C658   1.357       .  A
N657        H667   1.045       .  S
C658        C659   1.398       .  A
C659        H665   1.082       .  S
N660        C661   1.356       .  A
N660        H668   1.045       .  S
C661        C662   1.399       .  A
C662        H666   1.082       .  S
C669        C674   1.385       .  A
C669        C670   1.400       .  A
C669        N675   1.341       .  A
C670        C671   1.399       .  A
C670        H681   1.082       .  S
C671        C680   1.373       .  A
C671        C672   1.384       .  A
C672        C673   1.408       .  A
C672        N678   1.348       .  A
C673        C674   1.408       .  A
C673        H682   1.082       .  S
C674        C677   1.384       .  A
N675        C676   1.354       .  A
N675        H685   1.044       .  S
C676        C677   1.398       .  A
C677        H683   1.082       .  S
N678        C679   1.358       .  A
N678        H686   1.044       .  S
C679        C680   1.392       .  A
C680        H684   1.083       .  S
C687        C692   1.385       .  A
C687        C688   1.405       .  A
C687        N693   1.344       .  A
C688        C689   1.404       .  A
C688        H699   1.082       .  S
C689        C698   1.381       .  A
C689        C690   1.385       .  A
C690        C691   1.400       .  A
C690        N696   1.340       .  A
C691        C692   1.399       .  A
C691        H700   1.082       .  S
C692        C695   1.374       .  A
N693        C694   1.356       .  A
N693        H703   1.044       .  S
C694        C695   1.393       .  A
C695        H701   1.083       .  S
N696        C697   1.354       .  A
N696        H704   1.045       .  S
C697        C698   1.396       .  A
C698        H702   1.082       .  S
C705        C710   1.385       .  A
C705        C706   1.406       .  A
C705        N711   1.347       .  A
C706        C707   1.406       .  A
C706        H717   1.082       .  S
C707        C716   1.381       .  A
C707        C708   1.385       .  A
C708        C709   1.402       .  A
C708        N714   1.342       .  A
C709        C710   1.401       .  A
C709        H718   1.083       .  S
C710        C713   1.375       .  A
N711        C712   1.356       .  A
N711        H721   1.043       .  S
C712        C713   1.393       .  A
C713        H719   1.083       .  S
N714        C715   1.355       .  A
N714        H722   1.045       .  S
C715        C716   1.396       .  A
C716        H720   1.082       .  S
C723        C728   1.385       .  A
C723        C724   1.404       .  A
C723        N729   1.346       .  A
C724        C725   1.404       .  A
C724        H735   1.082       .  S
C725        C734   1.377       .  A
C725        C726   1.385       .  A
C726        C727   1.402       .  A
C726        N732   1.345       .  A
C727        C728   1.402       .  A
C727        H736   1.082       .  S
C728        C731   1.374       .  A
N729        C730   1.355       .  A
N729        H739   1.045       .  S
C730        C731   1.395       .  A
C731        H737   1.083       .  S
N732        C733   1.354       .  A
N732        H740   1.046       .  S
C733        C734   1.396       .  A
C734        H738   1.082       .  S
C741        C746   1.383       .  A
C741        C742   1.406       .  A
C741        N747   1.346       .  A
C742        C743   1.405       .  A
C742        H753   1.082       .  S
C743        C752   1.380   1_554  A
C743        C744   1.383       .  A
C744        C745   1.412       .  A
C744        N750   1.351   1_554  A
C745        C746   1.411       .  A
C745        H754   1.082       .  S
C746        C749   1.389       .  A
N747        C748   1.358       .  A
N747        H757   1.044       .  S
C748        C749   1.400       .  A
C749        H755   1.082       .  S
N750        C751   1.359       .  A
N750        H758   1.045       .  S
C751        C752   1.398       .  A
C752        H756   1.083       .  S
C759        C764   1.385       .  A
C759        C760   1.406       .  A
C759        N765   1.347       .  A
C760        C761   1.406   1_455  A
C760        H771   1.082       .  S
C761        C770   1.381       .  A
C761        C762   1.385       .  A
C762        C763   1.399   1_655  A
C762        N768   1.341       .  A
C763        C764   1.398       .  A
C763        H772   1.083       .  S
C764        C767   1.372       .  A
N765        C766   1.357       .  A
N765        H775   1.043       .  S
C766        C767   1.392       .  A
C767        H773   1.083       .  S
N768        C769   1.354       .  A
N768        H776   1.045       .  S
C769        C770   1.396       .  A
C770        H774   1.082       .  S
C777        C782   1.384       .  A
C777        C778   1.401       .  A
C777        N783   1.342       .  A
C778        C779   1.400       .  A
C778        H789   1.083       .  S
C779        C788   1.374       .  A
C779        C780   1.384       .  A
C780        C781   1.409       .  A
C780        N786   1.349       .  A
C781        C782   1.409       .  A
C781        H790   1.082       .  S
C782        C785   1.386       .  A
N783        C784   1.355       .  A
N783        H793   1.046       .  S
C784        C785   1.399       .  A
C785        H791   1.082       .  S
N786        C787   1.357       .  A
N786        H794   1.045       .  S
C787        C788   1.393       .  A
C788        H792   1.083       .  S
C795        C800   1.384       .  A
C795        C796   1.405       .  A
C795        N801   1.343       .  A
C796        C797   1.403       .  A
C796        H807   1.082       .  S
C797        C806   1.382       .  A
C797        C798   1.384       .  A
C798        C799   1.407       .  A
C798        N804   1.345       .  A
C799        C800   1.405       .  A
C799        H808   1.082       .  S
C800        C803   1.384       .  A
N801        C802   1.356       .  A
N801        H811   1.044       .  S
C802        C803   1.397       .  A
C803        H809   1.082       .  S
N804        C805   1.358       .  A
N804        H812   1.044       .  S
C805        C806   1.395       .  A
C806        H810   1.082       .  S
C813        C818   1.385       .  A
C813        C814   1.398       .  A
C813        N819   1.340       .  A
C814        C815   1.397       .  A
C814        H825   1.082       .  S
C815        C824   1.371       .  A
C815        C816   1.384       .  A
C816        C817   1.408       .  A
C816        N822   1.348       .  A
C817        C818   1.408       .  A
C817        H826   1.082       .  S
C818        C821   1.383       .  A
N819        C820   1.353       .  A
N819        H829   1.045       .  S
C820        C821   1.398       .  A
C821        H827   1.082       .  S
N822        C823   1.358       .  A
N822        H830   1.044       .  S
C823        C824   1.391       .  A
C824        H828   1.082       .  S
C831        C836   1.384       .  A
C831        C832   1.399   1_556  A
C831        N837   1.340       .  A
C832        C833   1.398       .  A
C832        H843   1.083       .  S
C833        C842   1.371       .  A
C833        C834   1.384       .  A
C834        C835   1.414       .  A
C834        N840   1.353       .  A
C835        C836   1.413   1_554  A
C835        H844   1.082       .  S
C836        C839   1.391       .  A
N837        C838   1.354       .  A
N837        H847   1.044       .  S
C838        C839   1.402       .  A
C839        H845   1.082       .  S
N840        C841   1.360       .  A
N840        H848   1.045       .  S
C841        C842   1.393       .  A
C842        H846   1.083       .  S
C849        C854   1.385       .  A
C849        C850   1.398       .  A
C849        N855   1.340       .  A
C850        C851   1.397       .  A
C850        H861   1.083       .  S
C851        C860   1.370       .  A
C851        C852   1.385       .  A
C852        C853   1.406       .  A
C852        N858   1.347       .  A
C853        C854   1.406       .  A
C853        H862   1.082       .  S
C854        C857   1.381       .  A
N855        C856   1.353       .  A
N855        H865   1.045       .  S
C856        C857   1.396       .  A
C857        H863   1.082       .  S
N858        C859   1.357       .  A
N858        H866   1.044       .  S
C859        C860   1.391       .  A
C860        H864   1.083       .  S
C867        C872   1.384       .  A
C867        C868   1.413       .  A
C867        N873   1.352       .  A
C868        C869   1.413       .  A
C868        H879   1.082       .  S
C869        C878   1.391       .  A
C869        C870   1.384       .  A
C870        C871   1.400       .  A
C870        N876   1.341       .  A
C871        C872   1.399       .  A
C871        H880   1.083       .  S
C872        C875   1.373       .  A
N873        C874   1.360       .  A
N873        H883   1.045       .  S
C874        C875   1.393       .  A
C875        H881   1.083       .  S
N876        C877   1.355       .  A
N876        H884   1.043       .  S
C877        C878   1.401       .  A
C878        H882   1.082       .  S
C885        C890   1.385       .  A
C885        C886   1.400       .  A
C885        N891   1.340       .  A
C886        C887   1.399       .  A
C886        H897   1.082       .  S
C887        C896   1.375       .  A
C887        C888   1.385       .  A
C888        C889   1.404       .  A
C888        N894   1.344       .  A
C889        C890   1.403       .  A
C889        H898   1.082       .  S
C890        C893   1.380       .  A
N891        C892   1.354       .  A
N891        H901   1.044       .  S
C892        C893   1.395       .  A
C893        H899   1.082       .  S
N894        C895   1.355       .  A
N894        H902   1.044       .  S
C895        C896   1.393       .  A
C896        H900   1.083       .  S
C903        C908   1.383       .  A
C903        C904   1.408       .  A
C903        N909   1.344       .  A
C904        C905   1.406       .  A
C904        H915   1.082       .  S
C905        C914   1.386       .  A
C905        C906   1.383       .  A
C906        C907   1.407       .  A
C906        N912   1.344       .  A
C907        C908   1.405       .  A
C907        H916   1.082       .  S
C908        C911   1.387       .  A
N909        C910   1.358       .  A
N909        H919   1.043       .  S
C910        C911   1.398       .  A
C911        H917   1.082       .  S
N912        C913   1.357       .  A
N912        H920   1.044       .  S
C913        C914   1.398       .  A
C914        H918   1.082       .  S
C921        C926   1.385       .  A
C921        C922   1.404       .  A
C921        N927   1.345       .  A
C922        C923   1.404       .  A
C922        H933   1.082       .  S
C923        C932   1.379       .  A
C923        C924   1.385       .  A
C924        C925   1.400       .  A
C924        N930   1.341       .  A
C925        C926   1.399       .  A
C925        H934   1.082       .  S
C926        C929   1.373       .  A
N927        C928   1.356       .  A
N927        H937   1.044       .  S
C928        C929   1.393       .  A
C929        H935   1.083       .  S
N930        C931   1.354       .  A
N930        H938   1.045       .  S
C931        C932   1.395       .  A
C932        H936   1.082       .  S
C939        C944   1.385       .  A
C939        C940   1.403       .  A
C939        N945   1.347       .  A
C940        C941   1.404       .  A
C940        H951   1.082       .  S
C941        C950   1.375       .  A
C941        C942   1.385       .  A
C942        C943   1.405       .  A
C942        N948   1.348       .  A
C943        C944   1.406       .  A
C943        H952   1.082       .  S
C944        C947   1.377       .  A
N945        C946   1.355       .  A
N945        H955   1.045       .  S
C946        C947   1.397       .  A
C947        H953   1.082       .  S
N948        C949   1.356       .  A
N948        H956   1.045       .  S
C949        C950   1.396       .  A
C950        H954   1.082       .  S
C957        C962   1.384       .  A
C957        C958   1.409       .  A
C957        N963   1.347       .  A
C958        C959   1.408       .  A
C958        H969   1.082       .  S
C959        C968   1.385   1_565  A
C959        C960   1.385       .  A
C960        C961   1.399       .  A
C960        N966   1.339   1_565  A
C961        C962   1.398       .  A
C961        H970   1.082       .  S
C962        C965   1.374       .  A
N963        C964   1.358       .  A
N963        H973   1.043       .  S
C964        C965   1.392       .  A
C965        H971   1.082       .  S
N966        C967   1.353       .  A
N966        H974   1.044       .  S
C967        C968   1.398       .  A
C968        H972   1.082       .  S
C975        C980   1.385       .  A
C975        C976   1.404       .  A
C975        N981   1.344       .  A
C976        C977   1.403       .  A
C976        H987   1.082       .  S
C977        C986   1.381       .  A
C977        C978   1.385       .  A
C978        C979   1.404       .  A
C978        N984   1.343       .  A
C979        C980   1.402       .  A
C979        H988   1.082       .  S
C980        C983   1.378       .  A
N981        C982   1.355       .  A
N981        H991   1.045       .  S
C982        C983   1.395       .  A
C983        H989   1.083       .  S
N984        C985   1.356       .  A
N984        H992   1.044       .  S
C985        C986   1.395       .  A
C986        H990   1.082       .  S
C993        C998   1.385       .  A
C993        C994   1.404       .  A
C993        N999   1.344       .  A
C994        C995   1.404       .  A
C994       H1005   1.082       .  S
C995       C1004   1.381       .  A
C995        C996   1.385       .  A
C996        C997   1.403       .  A
C996       N1002   1.343       .  A
C997        C998   1.402       .  A
C997       H1006   1.082       .  S
C998       C1001   1.377       .  A
N999       C1000   1.355       .  A
N999       H1009   1.044       .  S
C1000      C1001   1.394       .  A
C1001      H1007   1.083       .  S
N1002      C1003   1.356       .  A
N1002      H1010   1.045       .  S
C1003      C1004   1.396       .  A
C1004      H1008   1.082       .  S
C1011      C1016   1.384       .  A
C1011      C1012   1.407       .  A
C1011      N1017   1.343       .  A
C1012      C1013   1.405       .  A
C1012      H1023   1.082       .  S
C1013      C1022   1.386       .  A
C1013      C1014   1.384       .  A
C1014      C1015   1.406       .  A
C1014      N1020   1.343       .  A
C1015      C1016   1.403       .  A
C1015      H1024   1.082       .  S
C1016      C1019   1.382       .  A
N1017      C1018   1.357       .  A
N1017      H1027   1.046       .  S
C1018      C1019   1.395       .  A
C1019      H1025   1.082       .  S
N1020      C1021   1.357       .  A
N1020      H1028   1.045       .  S
C1021      C1022   1.398       .  A
C1022      H1026   1.082       .  S
C1029      C1034   1.385       .  A
C1029      C1030   1.402       .  A
C1029      N1035   1.343       .  A
C1030      C1031   1.401       .  A
C1030      H1041   1.082       .  S
C1031      C1040   1.374       .  A
C1031      C1032   1.385       .  A
C1032      C1033   1.405       .  A
C1032      N1038   1.346       .  A
C1033      C1034   1.405       .  A
C1033      H1042   1.082       .  S
C1034      C1037   1.380       .  A
N1035      C1036   1.356       .  A
N1035      H1045   1.044       .  S
C1036      C1037   1.396       .  A
C1037      H1043   1.082       .  S
N1038      C1039   1.356   1_565  A
N1038      H1046   1.044   1_565  S
C1039      C1040   1.393   1_545  A
C1040      H1044   1.083   1_565  S
C1047      C1052   1.384       .  A
C1047      C1048   1.410       .  A
C1047      N1053   1.351       .  A
C1048      C1049   1.410       .  A
C1048      H1059   1.082       .  S
C1049      C1058   1.388       .  A
C1049      C1050   1.384       .  A
C1050      C1051   1.399       .  A
C1050      N1056   1.340       .  A
C1051      C1052   1.398       .  A
C1051      H1060   1.083       .  S
C1052      C1055   1.370       .  A
N1053      C1054   1.359       .  A
N1053      H1063   1.045       .  S
C1054      C1055   1.393       .  A
C1055      H1061   1.083       .  S
N1056      C1057   1.355       .  A
N1056      H1064   1.044       .  S
C1057      C1058   1.399       .  A
C1058      H1062   1.082       .  S
C1065      C1070   1.385       .  A
C1065      C1066   1.399   1_556  A
C1065      N1071   1.339       .  A
C1066      C1067   1.398       .  A
C1066      H1077   1.083       .  S
C1067      C1076   1.370       .  A
C1067      C1068   1.384       .  A
C1068      C1069   1.410       .  A
C1068      N1074   1.350       .  A
C1069      C1070   1.410   1_554  A
C1069      H1078   1.082       .  S
C1070      C1073   1.387       .  A
N1071      C1072   1.354       .  A
N1071      H1081   1.045       .  S
C1072      C1073   1.398       .  A
C1073      H1079   1.082       .  S
N1074      C1075   1.358       .  A
N1074      H1082   1.045       .  S
C1075      C1076   1.393       .  A
C1076      H1080   1.083       .  S
C1083      C1088   1.384       .  A
C1083      C1084   1.407       .  A
C1083      N1089   1.343       .  A
C1084      C1085   1.405       .  A
C1084      H1095   1.082       .  S
C1085      C1094   1.386       .  A
C1085      C1086   1.384       .  A
C1086      C1087   1.405       .  A
C1086      N1092   1.340       .  A
C1087      C1088   1.402       .  A
C1087      H1096   1.082       .  S
C1088      C1091   1.383       .  A
N1089      C1090   1.357       .  A
N1089      H1099   1.044       .  S
C1090      C1091   1.396       .  A
C1091      H1097   1.082       .  S
N1092      C1093   1.356       .  A
N1092      H1100   1.044       .  S
C1093      C1094   1.397       .  A
C1094      H1098   1.082       .  S
C1101      C1106   1.384       .  A
C1101      C1102   1.412       .  A
C1101      N1107   1.351       .  A
C1102      C1103   1.411       .  A
C1102      H1113   1.082       .  S
C1103      C1112   1.389       .  A
C1103      C1104   1.384       .  A
C1104      C1105   1.399       .  A
C1104      N1110   1.340       .  A
C1105      C1106   1.398       .  A
C1105      H1114   1.082       .  S
C1106      C1109   1.372       .  A
N1107      C1108   1.359       .  A
N1107      H1117   1.046       .  S
C1108      C1109   1.393       .  A
C1109      H1115   1.083       .  S
N1110      C1111   1.354       .  A
N1110      H1118   1.043       .  S
C1111      C1112   1.400       .  A
C1112      H1116   1.082       .  S
C1119      C1124   1.384       .  A
C1119      C1120   1.407       .  A
C1119      N1125   1.346       .  A
C1120      C1121   1.406       .  A
C1120      H1131   1.082       .  S
C1121      C1130   1.384       .  A
C1121      C1122   1.385       .  A
C1122      C1123   1.400       .  A
C1122      N1128   1.340       .  A
C1123      C1124   1.399       .  A
C1123      H1132   1.083       .  S
C1124      C1127   1.374       .  A
N1125      C1126   1.357       .  A
N1125      H1135   1.044       .  S
C1126      C1127   1.393       .  A
C1127      H1133   1.083       .  S
N1128      C1129   1.354       .  A
N1128      H1136   1.045       .  S
C1129      C1130   1.397       .  A
C1130      H1134   1.082       .  S
C1137      C1142   1.385       .  A
C1137      C1138   1.406       .  A
C1137      N1143   1.345       .  A
C1138      C1139   1.405       .  A
C1138      H1149   1.082       .  S
C1139      C1148   1.381       .  A
C1139      C1140   1.385       .  A
C1140      C1141   1.401       .  A
C1140      N1146   1.341       .  A
C1141      C1142   1.400       .  A
C1141      H1150   1.082       .  S
C1142      C1145   1.376       .  A
N1143      C1144   1.356       .  A
N1143      H1153   1.044       .  S
C1144      C1145   1.394       .  A
C1145      H1151   1.083       .  S
N1146      C1147   1.354       .  A
N1146      H1154   1.044       .  S
C1147      C1148   1.396       .  A
C1148      H1152   1.082       .  S
C1155      C1160   1.384       .  A
C1155      C1156   1.398       .  A
C1155      N1161   1.340       .  A
C1156      C1157   1.397   1_554  A
C1156      H1167   1.083       .  S
C1157      C1166   1.370       .  A
C1157      C1158   1.384       .  A
C1158      C1159   1.414   1_556  A
C1158      N1164   1.354       .  A
C1159      C1160   1.414       .  A
C1159      H1168   1.082       .  S
C1160      C1163   1.391       .  A
N1161      C1162   1.354       .  A
N1161      H1171   1.046       .  S
C1162      C1163   1.401       .  A
C1163      H1169   1.082       .  S
N1164      C1165   1.361       .  A
N1164      H1172   1.045       .  S
C1165      C1166   1.392       .  A
C1166      H1170   1.083       .  S
C1173      C1178   1.385       .  A
C1173      C1174   1.405       .  A
C1173      N1179   1.345       .  A
C1174      C1175   1.404       .  A
C1174      H1185   1.082       .  S
C1175      C1184   1.380       .  A
C1175      C1176   1.385       .  A
C1176      C1177   1.400       .  A
C1176      N1182   1.341       .  A
C1177      C1178   1.399       .  A
C1177      H1186   1.082       .  S
C1178      C1181   1.373       .  A
N1179      C1180   1.356       .  A
N1179      H1189   1.044       .  S
C1180      C1181   1.392       .  A
C1181      H1187   1.082       .  S
N1182      C1183   1.354       .  A
N1182      H1190   1.045       .  S
C1183      C1184   1.395       .  A
C1184      H1188   1.082       .  S
C1191      C1196   1.385       .  A
C1191      C1192   1.403       .  A
C1191      N1197   1.346       .  A
C1192      C1193   1.404       .  A
C1192      H1203   1.082       .  S
C1193      C1202   1.377       .  A
C1193      C1194   1.384       .  A
C1194      C1195   1.406       .  A
C1194      N1200   1.348       .  A
C1195      C1196   1.407       .  A
C1195      H1204   1.082       .  S
C1196      C1199   1.380       .  A
N1197      C1198   1.355       .  A
N1197      H1207   1.045       .  S
C1198      C1199   1.399       .  A
C1199      H1205   1.082       .  S
N1200      C1201   1.357       .  A
N1200      H1208   1.046       .  S
C1201      C1202   1.396       .  A
C1202      H1206   1.082       .  S
C1209      C1214   1.385       .  A
C1209      C1210   1.405   1_655  A
C1209      N1215   1.346       .  A
C1210      C1211   1.405       .  A
C1210      H1221   1.082       .  S
C1211      C1220   1.381       .  A
C1211      C1212   1.385       .  A
C1212      C1213   1.401       .  A
C1212      N1218   1.341       .  A
C1213      C1214   1.400   1_455  A
C1213      H1222   1.083       .  S
C1214      C1217   1.374       .  A
N1215      C1216   1.356       .  A
N1215      H1225   1.043       .  S
C1216      C1217   1.393       .  A
C1217      H1223   1.083       .  S
N1218      C1219   1.354       .  A
N1218      H1226   1.045       .  S
C1219      C1220   1.396       .  A
C1220      H1224   1.082       .  S
C1227      C1232   1.384       .  A
C1227      C1228   1.402       .  A
C1227      N1233   1.341       .  A
C1228      C1229   1.401       .  A
C1228      H1239   1.082       .  S
C1229      C1238   1.376       .  A
C1229      C1230   1.384       .  A
C1230      C1231   1.407       .  A
C1230      N1236   1.347       .  A
C1231      C1232   1.407       .  A
C1231      H1240   1.082       .  S
C1232      C1235   1.384       .  A
N1233      C1234   1.355       .  A
N1233      H1243   1.044       .  S
C1234      C1235   1.397       .  A
C1235      H1241   1.082       .  S
N1236      C1237   1.357       .  A
N1236      H1244   1.043       .  S
C1237      C1238   1.394       .  A
C1238      H1242   1.083       .  S
C1245      C1250   1.384       .  A
C1245      C1246   1.406       .  A
C1245      N1251   1.343       .  A
C1246      C1247   1.404       .  A
C1246      H1257   1.082       .  S
C1247      C1256   1.384       .  A
C1247      C1248   1.384       .  A
C1248      C1249   1.405       .  A
C1248      N1254   1.342       .  A
C1249      C1250   1.403       .  A
C1249      H1258   1.082       .  S
C1250      C1253   1.383       .  A
N1251      C1252   1.357       .  A
N1251      H1261   1.045       .  S
C1252      C1253   1.396       .  A
C1253      H1259   1.082       .  S
N1254      C1255   1.357       .  A
N1254      H1262   1.045       .  S
C1255      C1256   1.396       .  A
C1256      H1260   1.082       .  S
C1263      C1268   1.384       .  A
C1263      C1264   1.407       .  A
C1263      N1269   1.347       .  A
C1264      C1265   1.407       .  A
C1264      H1275   1.082       .  S
C1265      C1274   1.383   1_565  A
C1265      C1266   1.385       .  A
C1266      C1267   1.398       .  A
C1266      N1272   1.339   1_565  A
C1267      C1268   1.397       .  A
C1267      H1276   1.082       .  S
C1268      C1271   1.372       .  A
N1269      C1270   1.358       .  A
N1269      H1279   1.044       .  S
C1270      C1271   1.391       .  A
C1271      H1277   1.082       .  S
N1272      C1273   1.353       .  A
N1272      H1280   1.045       .  S
C1273      C1274   1.397       .  A
C1274      H1278   1.082       .  S
C1281      C1286   1.385       .  A
C1281      C1282   1.400       .  A
C1281      N1287   1.342       .  A
C1282      C1283   1.399       .  A
C1282      H1293   1.083       .  S
C1283      C1292   1.371       .  A
C1283      C1284   1.385       .  A
C1284      C1285   1.405       .  A
C1284      N1290   1.347       .  A
C1285      C1286   1.406       .  A
C1285      H1294   1.082       .  S
C1286      C1289   1.380       .  A
N1287      C1288   1.355       .  A
N1287      H1297   1.045       .  S
C1288      C1289   1.396       .  A
C1289      H1295   1.082       .  S
N1290      C1291   1.356       .  A
N1290      H1298   1.044       .  S
C1291      C1292   1.392       .  A
C1292      H1296   1.083       .  S
C1299      C1304   1.385       .  A
C1299      C1300   1.400       .  A
C1299      N1305   1.341       .  A
C1300      C1301   1.400       .  A
C1300      H1311   1.083       .  S
C1301      C1310   1.374       .  A
C1301      C1302   1.385       .  A
C1302      C1303   1.404       .  A
C1302      N1308   1.345       .  A
C1303      C1304   1.403       .  A
C1303      H1312   1.082       .  S
C1304      C1307   1.378       .  A
N1305      C1306   1.354       .  A
N1305      H1315   1.045       .  S
C1306      C1307   1.394       .  A
C1307      H1313   1.082       .  S
N1308      C1309   1.356       .  A
N1308      H1316   1.044       .  S
C1309      C1310   1.393       .  A
C1310      H1314   1.082       .  S
C1317      C1322   1.385       .  A
C1317      C1318   1.400       .  A
C1317      N1323   1.340       .  A
C1318      C1319   1.399       .  A
C1318      H1329   1.082       .  S
C1319      C1328   1.374       .  A
C1319      C1320   1.385       .  A
C1320      C1321   1.405       .  A
C1320      N1326   1.344       .  A
C1321      C1322   1.404       .  A
C1321      H1330   1.082       .  S
C1322      C1325   1.381       .  A
N1323      C1324   1.354       .  A
N1323      H1333   1.044       .  S
C1324      C1325   1.396       .  A
C1325      H1331   1.082       .  S
N1326      C1327   1.355       .  A
N1326      H1334   1.044       .  S
C1327      C1328   1.393       .  A
C1328      H1332   1.083       .  S
C1335      C1340   1.384       .  A
C1335      C1336   1.408       .  A
C1335      N1341   1.345       .  A
C1336      C1337   1.406       .  A
C1336      H1347   1.082       .  S
C1337      C1346   1.386       .  A
C1337      C1338   1.384       .  A
C1338      C1339   1.406       .  A
C1338      N1344   1.343       .  A
C1339      C1340   1.403       .  A
C1339      H1348   1.082       .  S
C1340      C1343   1.383       .  A
N1341      C1342   1.359       .  A
N1341      H1351   1.044       .  S
C1342      C1343   1.395       .  A
C1343      H1349   1.082       .  S
N1344      C1345   1.357       .  A
N1344      H1352   1.045       .  S
C1345      C1346   1.398       .  A
C1346      H1350   1.082       .  S
C1353      C1358   1.385       .  A
C1353      C1354   1.405   1_655  A
C1353      N1359   1.345       .  A
C1354      C1355   1.404       .  A
C1354      H1365   1.082       .  S
C1355      C1364   1.380       .  A
C1355      C1356   1.385       .  A
C1356      C1357   1.401       .  A
C1356      N1362   1.341       .  A
C1357      C1358   1.401   1_455  A
C1357      H1366   1.083       .  S
C1358      C1361   1.376       .  A
N1359      C1360   1.356       .  A
N1359      H1369   1.043       .  S
C1360      C1361   1.394       .  A
C1361      H1367   1.083       .  S
N1362      C1363   1.354       .  A
N1362      H1370   1.045       .  S
C1363      C1364   1.395       .  A
C1364      H1368   1.082       .  S
C1371      C1376   1.384       .  A
C1371      C1372   1.410       .  A
C1371      N1377   1.351       .  A
C1372      C1373   1.410       .  A
C1372      H1383   1.082       .  S
C1373      C1382   1.387       .  A
C1373      C1374   1.385       .  A
C1374      C1375   1.397       .  A
C1374      N1380   1.338       .  A
C1375      C1376   1.396       .  A
C1375      H1384   1.083       .  S
C1376      C1379   1.368       .  A
N1377      C1378   1.359       .  A
N1377      H1387   1.044       .  S
C1378      C1379   1.392       .  A
C1379      H1385   1.083       .  S
N1380      C1381   1.353       .  A
N1380      H1388   1.045       .  S
C1381      C1382   1.398       .  A
C1382      H1386   1.082       .  S
C1389      C1394   1.385       .  A
C1389      C1390   1.405       .  A
C1389      N1395   1.345       .  A
C1390      C1391   1.404       .  A
C1390      H1401   1.082       .  S
C1391      C1400   1.379       .  A
C1391      C1392   1.385       .  A
C1392      C1393   1.398       .  A
C1392      N1398   1.339       .  A
C1393      C1394   1.398       .  A
C1393      H1402   1.082       .  S
C1394      C1397   1.371       .  A
N1395      C1396   1.356       .  A
N1395      H1405   1.044       .  S
C1396      C1397   1.392       .  A
C1397      H1403   1.082       .  S
N1398      C1399   1.353       .  A
N1398      H1406   1.044       .  S
C1399      C1400   1.395       .  A
C1400      H1404   1.082       .  S
C1407      C1412   1.384       .  A
C1407      C1408   1.403       .  A
C1407      N1413   1.342       .  A
C1408      C1409   1.402   1_554  A
C1408      H1419   1.083       .  S
C1409      C1418   1.377       .  A
C1409      C1410   1.384       .  A
C1410      C1411   1.408   1_556  A
C1410      N1416   1.348       .  A
C1411      C1412   1.408       .  A
C1411      H1420   1.082       .  S
C1412      C1415   1.385       .  A
N1413      C1414   1.356       .  A
N1413      H1423   1.045       .  S
C1414      C1415   1.398       .  A
C1415      H1421   1.082       .  S
N1416      C1417   1.357       .  A
N1416      H1424   1.045       .  S
C1417      C1418   1.396       .  A
C1418      H1422   1.083       .  S
C1425      C1430   1.385       .  A
C1425      C1426   1.403       .  A
C1425      N1431   1.347       .  A
C1426      C1427   1.404       .  A
C1426      H1437   1.082       .  S
C1427      C1436   1.377       .  A
C1427      C1428   1.384       .  A
C1428      C1429   1.407       .  A
C1428      N1434   1.349       .  A
C1429      C1430   1.408       .  A
C1429      H1438   1.082       .  S
C1430      C1433   1.380       .  A
N1431      C1432   1.355       .  A
N1431      H1441   1.045       .  S
C1432      C1433   1.399       .  A
C1433      H1439   1.083       .  S
N1434      C1435   1.358       .  A
N1434      H1442   1.045       .  S
C1435      C1436   1.396       .  A
C1436      H1440   1.082       .  S
C1443      C1448   1.385       .  A
C1443      C1444   1.397       .  A
C1443      N1449   1.340       .  A
C1444      C1445   1.397       .  A
C1444      H1455   1.082       .  S
C1445      C1454   1.369   1_565  A
C1445      C1446   1.384       .  A
C1446      C1447   1.409       .  A
C1446      N1452   1.350   1_565  A
C1447      C1448   1.409       .  A
C1447      H1456   1.082       .  S
C1448      C1451   1.384       .  A
N1449      C1450   1.352       .  A
N1449      H1459   1.044       .  S
C1450      C1451   1.399       .  A
C1451      H1457   1.082       .  S
N1452      C1453   1.359       .  A
N1452      H1460   1.044       .  S
C1453      C1454   1.390       .  A
C1454      H1458   1.082       .  S
C1461      C1466   1.383       .  A
C1461      C1462   1.415       .  A
C1461      N1467   1.354       .  A
C1462      C1463   1.414       .  A
C1462      H1473   1.082       .  S
C1463      C1472   1.393       .  A
C1463      C1464   1.384       .  A
C1464      C1465   1.398       .  A
C1464      N1470   1.339       .  A
C1465      C1466   1.397       .  A
C1465      H1474   1.083       .  S
C1466      C1469   1.371       .  A
N1467      C1468   1.361       .  A
N1467      H1477   1.045       .  S
C1468      C1469   1.393       .  A
C1469      H1475   1.083       .  S
N1470      C1471   1.354       .  A
N1470      H1478   1.045       .  S
C1471      C1472   1.402       .  A
C1472      H1476   1.082       .  S
C1479      C1484   1.385       .  A
C1479      C1480   1.400       .  A
C1479      N1485   1.340       .  A
C1480      C1481   1.399       .  A
C1480      H1491   1.082       .  S
C1481      C1490   1.375       .  A
C1481      C1482   1.385       .  A
C1482      C1483   1.406       .  A
C1482      N1488   1.345       .  A
C1483      C1484   1.405       .  A
C1483      H1492   1.082       .  S
C1484      C1487   1.382       .  A
N1485      C1486   1.354       .  A
N1485      H1495   1.044       .  S
C1486      C1487   1.397       .  A
C1487      H1493   1.082       .  S
N1488      C1489   1.356       .  A
N1488      H1496   1.044       .  S
C1489      C1490   1.394       .  A
C1490      H1494   1.083       .  S
C1497      C1502   1.384       .  A
C1497      C1498   1.401       .  A
C1497      N1503   1.341       .  A
C1498      C1499   1.399       .  A
C1498      H1509   1.082       .  S
C1499      C1508   1.376       .  A
C1499      C1500   1.384       .  A
C1500      C1501   1.409       .  A
C1500      N1506   1.347       .  A
C1501      C1502   1.409       .  A
C1501      H1510   1.082       .  S
C1502      C1505   1.387       .  A
N1503      C1504   1.354       .  A
N1503      H1513   1.044       .  S
C1504      C1505   1.399       .  A
C1505      H1511   1.082       .  S
N1506      C1507   1.358       .  A
N1506      H1514   1.044       .  S
C1507      C1508   1.393       .  A
C1508      H1512   1.082       .  S
C1515      C1520   1.384       .  A
C1515      C1516   1.412       .  A
C1515      N1521   1.352       .  A
C1516      C1517   1.411   1_554  A
C1516      H1527   1.082       .  S
C1517      C1526   1.388       .  A
C1517      C1518   1.384       .  A
C1518      C1519   1.401   1_556  A
C1518      N1524   1.342       .  A
C1519      C1520   1.400       .  A
C1519      H1528   1.083       .  S
C1520      C1523   1.374       .  A
N1521      C1522   1.360       .  A
N1521      H1531   1.045       .  S
C1522      C1523   1.394       .  A
C1523      H1529   1.083       .  S
N1524      C1525   1.355       .  A
N1524      H1532   1.045       .  S
C1525      C1526   1.399       .  A
C1526      H1530   1.082       .  S
C1533      C1538   1.385       .  A
C1533      C1534   1.406       .  A
C1533      N1539   1.346       .  A
C1534      C1535   1.405       .  A
C1534      H1545   1.082       .  S
C1535      C1544   1.381       .  A
C1535      C1536   1.385       .  A
C1536      C1537   1.400       .  A
C1536      N1542   1.340       .  A
C1537      C1538   1.399       .  A
C1537      H1546   1.082       .  S
C1538      C1541   1.374       .  A
N1539      C1540   1.356       .  A
N1539      H1549   1.044       .  S
C1540      C1541   1.393       .  A
C1541      H1547   1.083       .  S
N1542      C1543   1.353       .  A
N1542      H1550   1.044       .  S
C1543      C1544   1.396       .  A
C1544      H1548   1.082       .  S
C1551      C1556   1.384       .  A
C1551      C1552   1.405       .  A
C1551      N1557   1.348       .  A
C1552      C1553   1.405       .  A
C1552      H1563   1.082       .  S
C1553      C1562   1.376       .  A
C1553      C1554   1.384       .  A
C1554      C1555   1.406       .  A
C1554      N1560   1.350       .  A
C1555      C1556   1.408       .  A
C1555      H1564   1.082       .  S
C1556      C1559   1.380       .  A
N1557      C1558   1.357       .  A
N1557      H1567   1.045       .  S
C1558      C1559   1.398       .  A
C1559      H1565   1.082       .  S
N1560      C1561   1.357       .  A
N1560      H1568   1.044       .  S
C1561      C1562   1.396       .  A
C1562      H1566   1.082       .  S
