geometry optimzed in LAMMPS
_audit_creation_date              2020-12-01 
_audit_creation_method            'lammps2cif' 
_symmetry_space_group_name_H-M    'P1' 
_symmetry_Int_Tables_number       1 
_symmetry_cell_setting            triclinic 
loop_ 
_symmetry_equiv_pos_as_xyz 
  x,y,z 
_cell_length_a                    56.9524371 
_cell_length_b                    57.18011969783506 
_cell_length_c                    50.35045664512968 
_cell_angle_alpha                 90.90566699637013 
_cell_angle_beta                  89.93312157780252 
_cell_angle_gamma                 91.01844422874258 
loop_ 
_atom_site_label 
_atom_site_type_symbol 
_atom_site_fract_x 
_atom_site_fract_y 
_atom_site_fract_z 
_atom_site_charge 
N1          N  0.45468276  0.94950352  0.17471488    -0.27700
N2          N  0.46673374  0.96664812  0.18662889    -0.35600
C3          C  0.48977281  0.96223856  0.18495937     0.00600
C4          C  0.49247779  0.94115266  0.17173324     0.06600
C5          C  0.46989031  0.93339841  0.16570011    -0.06500
H6          H  0.50337176  0.97241585  0.19502803     0.07300
H7          H  0.46483831  0.91675384  0.15670881     0.08500
Cu8        Cu  0.45190077  0.99208600  0.21057810     0.44200
Cu9        Cu  0.41797540  0.94816101  0.17348723     0.42000
Cu10       Cu  0.38904300  0.99191453  0.21415344     0.43900
N11         N  0.43362656  0.01031669  0.23946821    -0.35100
N12         N  0.41045704  0.01070165  0.24026159    -0.29400
C13         C  0.40368236  0.02015394  0.26353377    -0.05500
C14         C  0.42351053  0.02552434  0.27845277     0.06700
C15         C  0.44222238  0.01923751  0.26243597     0.00500
H16         H  0.38565929  0.02034384  0.27030890     0.08200
H17         H  0.46050949  0.01870439  0.26814820     0.07300
N18         N  0.37112764  0.96818794  0.18976647    -0.36600
N19         N  0.38156954  0.95241638  0.17457731    -0.28800
C20         C  0.36532256  0.94216531  0.15860773    -0.04000
C21         C  0.34355371  0.95160605  0.16433418     0.04600
C22         C  0.34803851  0.96810489  0.18415126     0.02700
H23         H  0.36934572  0.93024175  0.14240262     0.07800
H24         H  0.33586756  0.98084746  0.19187073     0.06600
N25         N  0.45348585  0.96709157  0.41686672    -0.27700
N26         N  0.46611292  0.98343800  0.40476227    -0.35600
C27         C  0.48896419  0.97797019  0.40573092     0.00600
C28         C  0.49098107  0.95700408  0.41862772     0.06600
C29         C  0.46815662  0.95044396  0.42519704    -0.06500
H30         H  0.50280759  0.98734018  0.39542027     0.07300
H31         H  0.46255232  0.93425514  0.43427810     0.08500
Cu32       Cu  0.45231436  0.00867014  0.38053807     0.44200
Cu33       Cu  0.41654586  0.96723090  0.41954463     0.42000
Cu34       Cu  0.39058352  0.01095346  0.37807883     0.43900
N35         N  0.43467762  0.02307582  0.34898028    -0.35100
N36         N  0.41157882  0.02439683  0.34862088    -0.29400
C37         C  0.40444006  0.02854241  0.32379705    -0.05500
C38         C  0.42394164  0.02935742  0.30744186     0.06700
C39         C  0.44289419  0.02614356  0.32417817     0.00500
H40         H  0.38627786  0.02749345  0.31756970     0.08200
H41         H  0.46082796  0.02294904  0.31823524     0.07300
N42         N  0.37129333  0.98939810  0.40245372    -0.36600
N43         N  0.38015962  0.97307832  0.41763297    -0.28800
C44         C  0.36226609  0.96246178  0.43069560    -0.04000
C45         C  0.34139318  0.97274464  0.42321658     0.04600
C46         C  0.34787499  0.98958764  0.40523233     0.02700
H47         H  0.36432361  0.94883615  0.44513219     0.07800
H48         H  0.33641278  0.00147784  0.39520529     0.06600
N49         N  0.55207051  0.92105314  0.17634769    -0.27700
N50         N  0.54043908  0.90373306  0.18786192    -0.35600
C51         C  0.51725043  0.90701672  0.18507789     0.00600
C52         C  0.51407671  0.92752877  0.17149885     0.06600
C53         C  0.53651357  0.93604197  0.16643486    -0.06500
H54         H  0.50378736  0.89688376  0.19510084     0.07300
H55         H  0.54116154  0.95281198  0.15806476     0.08500
Cu56       Cu  0.55584783  0.88077829  0.21376446     0.44200
Cu57       Cu  0.58844475  0.92533916  0.17772854     0.42000
Cu58       Cu  0.61890809  0.88626918  0.22009970     0.43900
N59         N  0.57452892  0.86787794  0.24548585    -0.35100
N60         N  0.59764394  0.86953621  0.24731497    -0.29400
C61         C  0.60418088  0.86406332  0.27199818    -0.05500
C62         C  0.58423645  0.85915806  0.28671021     0.06700
C63         C  0.56573178  0.86153968  0.26918447     0.00500
H64         H  0.62186773  0.86644464  0.27949027     0.08200
H65         H  0.54722174  0.86131401  0.27404323     0.07300
N66         N  0.63605651  0.90918924  0.19511827    -0.36600
N67         N  0.62489063  0.92400500  0.17995527    -0.28800
C68         C  0.64070051  0.93539761  0.16484652    -0.04000
C69         C  0.66282350  0.92707979  0.17052590     0.04600
C70         C  0.65922575  0.91071454  0.19008387     0.02700
H71         H  0.63625974  0.94784009  0.14977251     0.07800
H72         H  0.67227374  0.89960405  0.19871066     0.06600
N73         N  0.54946444  0.93208289  0.41871154    -0.27700
N74         N  0.53712359  0.91522821  0.40660787    -0.35600
C75         C  0.51429699  0.92087542  0.40660172     0.00600
C76         C  0.51205985  0.94245715  0.41891620     0.06600
C77         C  0.53471844  0.94922045  0.42607590    -0.06500
H78         H  0.50064494  0.91096975  0.39629491     0.07300
H79         H  0.54016125  0.96570474  0.43517056     0.08500
Cu80       Cu  0.55182569  0.88822868  0.38468983     0.44200
Cu81       Cu  0.58601417  0.93114850  0.42361369     0.42000
Cu82       Cu  0.61414728  0.88466559  0.38634105     0.43900
N83         N  0.57088477  0.87063346  0.35583113    -0.35100
N84         N  0.59399023  0.86930724  0.35668556    -0.29400
C85         C  0.60194748  0.86223213  0.33284592    -0.05500
C86         C  0.58298439  0.85930536  0.31591084     0.06700
C87         C  0.56350584  0.86449534  0.33127257     0.00500
H88         H  0.62032376  0.86223873  0.32739093     0.08200
H89         H  0.54575489  0.86671803  0.32424262     0.07300
N90         N  0.63174618  0.90643119  0.41291828    -0.36600
N91         N  0.62179934  0.92355780  0.42655810    -0.28800
C92         C  0.63825083  0.93403193  0.44211468    -0.04000
C93         C  0.65945971  0.92289894  0.43798570     0.04600
C94         C  0.65464051  0.90565322  0.41918283     0.02700
H95         H  0.63498676  0.94859690  0.45550111     0.07800
H96         H  0.66677555  0.89304685  0.41109395     0.06600
C97         C  0.09915929  0.78403036  0.04395054     0.86000
C98         C  0.07701863  0.79891893  0.04979082    -0.54200
C99         C  0.05665354  0.78635152  0.05096532     0.09000
C100        C  0.06056927  0.75952271  0.04557758     0.19900
C101        C  0.09862679  0.76473618  0.06566338    -0.54900
C102        C  0.07809385  0.75192502  0.06646151     0.09100
C103        C  0.09268185  0.77097080  0.01728276    -0.54500
C104        C  0.07267526  0.75757280  0.01826041     0.09600
H105        H  0.07740611  0.81787147  0.05167692     0.14200
H106        H  0.04508559  0.74803944  0.04678118    -0.00100
H107        H  0.11278374  0.76226887  0.07969524     0.14500
H108        H  0.10192640  0.77242483  0.99876086     0.14200
C109        C  0.16577951  0.86292764  0.04230778     0.86000
C110        C  0.17982786  0.86785921  0.01621548    -0.54200
C111        C  0.18895716  0.89008765  0.01483181     0.09000
C112        C  0.18277134  0.90510477  0.03945732     0.19900
C113        C  0.18403426  0.86921019  0.06442446    -0.54900
C114        C  0.19302286  0.89149404  0.06294893     0.09100
C115        C  0.14711922  0.88242992  0.04372036    -0.54500
C116        C  0.15608045  0.90449822  0.04245075     0.09600
H117        H  0.18409731  0.85497889  0.00110578     0.14200
H118        H  0.18798868  0.92339667  0.03858129    -0.00100
H119        H  0.18928417  0.85716334  0.07967219     0.14500
H120        H  0.12841461  0.87895317  0.04590301     0.14200
C121        C  0.25615344  0.95324581  0.48099204    -0.02900
C122        C  0.26197133  0.96231056  0.09400775    -0.02900
C123        C  0.00733635  0.69356159  0.47736359    -0.02900
C124        C  0.00920667  0.68646802  0.09631965    -0.02900
C125        C  0.83827126  0.84730839  0.05018806     0.86000
C126        C  0.82356124  0.85109151  0.07611609    -0.54200
C127        C  0.80923167  0.86997794  0.07516482     0.09000
C128        C  0.81098768  0.88279651  0.04897026     0.19900
C129        C  0.81927220  0.84575826  0.02792707    -0.54900
C130        C  0.80556702  0.86498681  0.02653428     0.09100
C131        C  0.85142404  0.87099032  0.04607762    -0.54500
C132        C  0.83713108  0.88975779  0.04570625     0.09600
H133        H  0.82462229  0.84044465  0.09368126     0.14200
H134        H  0.79923185  0.89752066  0.04950668    -0.00100
H135        H  0.81717686  0.83120548  0.01404793     0.14500
H136        H  0.87025030  0.87247140  0.04299513     0.14200
C137        C  0.91765011  0.78237956  0.05038997     0.86000
C138        C  0.92172438  0.76730253  0.02448649    -0.54200
C139        C  0.94291825  0.75667153  0.02327359     0.09000
C140        C  0.95759750  0.76180116  0.04839435     0.19900
C141        C  0.92126032  0.76444748  0.07289473    -0.54900
C142        C  0.94262493  0.75395977  0.07214432     0.09100
C143        C  0.93888695  0.79961985  0.05212772    -0.54500
C144        C  0.96004899  0.78921950  0.05117437     0.09600
H145        H  0.90874395  0.76410452  0.00907734     0.14200
H146        H  0.97377655  0.75184459  0.04711839    -0.00100
H147        H  0.90782865  0.75971212  0.08722981     0.14500
H148        H  0.93716203  0.81850927  0.05244177     0.14200
C149        C  0.75128632  0.93246323  0.49096556    -0.02900
C150        C  0.75146833  0.93827650  0.11144474    -0.02900
C151        C  0.08748112  0.10823408  0.04721115     0.86000
C152        C  0.08510635  0.12558923  0.02393884    -0.54200
C153        C  0.06290106  0.13390077  0.02080874     0.09000
C154        C  0.04564710  0.12469611  0.04147434     0.19900
C155        C  0.07895580  0.12322176  0.07153674    -0.54900
C156        C  0.05685523  0.13193272  0.06838945     0.09100
C157        C  0.06797586  0.08943244  0.04333926    -0.54500
C158        C  0.04617895  0.09809362  0.04048917     0.09600
H159        H  0.10016395  0.13323893  0.01383011     0.14200
H160        H  0.02776660  0.13141749  0.03783706    -0.00100
H161        H  0.08931067  0.12709355  0.08912505     0.14500
H162        H  0.07097703  0.07080867  0.04509859     0.14200
C163        C  0.16299641  0.04026206  0.05854083     0.86000
C164        C  0.18137544  0.04023885  0.08137814    -0.54200
C165        C  0.19213280  0.01932764  0.08463136     0.09000
C166        C  0.18430607  0.00083892  0.06342012     0.19900
C167        C  0.17774704  0.03305187  0.03363955    -0.54900
C168        C  0.18867512  0.01202663  0.03565950     0.09100
C169        C  0.14643666  0.01890621  0.06295692    -0.54500
C170        C  0.15734989  0.99805131  0.06483696     0.09600
H171        H  0.18584494  0.05550344  0.09352052     0.14200
H172        H  0.19332263  0.98431819  0.06689442    -0.00100
H173        H  0.17850007  0.04297530  0.51568168     0.14500
H174        H  0.12747153  0.01993191  0.06117562     0.14200
C175        C  0.83240106  0.03119240  0.04649276     0.86000
C176        C  0.84496659  0.00735445  0.04900940    -0.54200
C177        C  0.83017562  0.98833988  0.04854691     0.09000
C178        C  0.80400285  0.99529120  0.04564992     0.19900
C179        C  0.81845814  0.02771257  0.01998459    -0.54900
C180        C  0.80319918  0.00898997  0.01997054     0.09100
C181        C  0.81388456  0.03102089  0.06914293    -0.54500
C182        C  0.79923273  0.01195886  0.06889017     0.09600
H183        H  0.86391670  0.00576114  0.04987795     0.14200
H184        H  0.79057592  0.98119630  0.04463387    -0.00100
H185        H  0.82349855  0.03533266  0.50135135     0.14500
H186        H  0.81434255  0.04341260  0.08571339     0.14200
C187        C  0.91151133  0.09811738  0.05950046     0.86000
C188        C  0.91450890  0.11312891  0.08525055    -0.54200
C189        C  0.93620705  0.12344500  0.08813071     0.09000
C190        C  0.95266706  0.11771592  0.06473422     0.19900
C191        C  0.91789286  0.11566940  0.03694890    -0.54900
C192        C  0.93965880  0.12608490  0.03978037     0.09100
C193        C  0.93208014  0.08086194  0.05886890    -0.54500
C194        C  0.95345921  0.09121003  0.06187390     0.09600
H195        H  0.90022035  0.11644075  0.09902163     0.14200
H196        H  0.97062181  0.12432605  0.06736582    -0.00100
H197        H  0.90699366  0.11932411  0.02001248     0.14500
H198        H  0.92992105  0.06220415  0.05499386     0.14200
C199        C  0.99859326  0.20257168  0.50525118    -0.02900
C200        C  0.99121912  0.20008409  0.11454106    -0.02900
N201        N  0.02535716  0.39265270  0.17831537    -0.27700
N202        N  0.03956109  0.40467461  0.19443108    -0.35600
C203        C  0.03508070  0.42759638  0.19257033     0.00600
C204        C  0.01713432  0.43027872  0.17452035     0.06600
C205        C  0.01114536  0.40774277  0.16612955    -0.06500
H206        H  0.04268584  0.44107666  0.20538048     0.07300
H207        H  0.99659865  0.40261462  0.15338914     0.08500
Cu208      Cu  0.06032874  0.38958384  0.22295524     0.44200
Cu209      Cu  0.02464306  0.35606159  0.17609264     0.42000
Cu210      Cu  0.06226560  0.32742301  0.22406066     0.43900
N211        N  0.07314645  0.37147644  0.25494821    -0.35100
N212        N  0.07432551  0.34844027  0.25505836    -0.29400
C213        C  0.07756341  0.34142664  0.28008204    -0.05500
C214        C  0.07785020  0.36094481  0.29671560     0.06700
C215        C  0.07542711  0.37974029  0.27998652     0.00500
H216        H  0.07620152  0.32336679  0.28605982     0.08200
H217        H  0.07208520  0.39764605  0.28589663     0.07300
N218        N  0.04223861  0.30965196  0.19579917    -0.36600
N219        N  0.02840547  0.31980520  0.17851545    -0.28800
C220        C  0.01698533  0.30301672  0.16431248    -0.04000
C221        C  0.02399108  0.28127692  0.17300401     0.04600
C222        C  0.03983828  0.28629553  0.19321308     0.02700
H223        H  0.00420160  0.30636726  0.14901887     0.07800
H224        H  0.04819008  0.27403033  0.20611933     0.06600
N225        N  0.99100837  0.39348834  0.42405991    -0.27700
N226        N  0.00893924  0.40497260  0.41328516    -0.35600
C227        C  0.00540225  0.42807336  0.41549750     0.00600
C228        C  0.98413089  0.43154498  0.42788171     0.06600
C229        C  0.97525555  0.40925541  0.43275044    -0.06500
H230        H  0.01647311  0.44132134  0.40647713     0.07300
H231        H  0.95822724  0.40485818  0.94106707     0.08500
Cu232      Cu  0.03500662  0.39003321  0.39029198     0.44200
Cu233      Cu  0.98854201  0.35677114  0.42525552     0.42000
Cu234      Cu  0.03282452  0.32831246  0.38539632     0.43900
N235        N  0.05457124  0.37161428  0.36261635    -0.35100
N236        N  0.05401789  0.34854709  0.36140612    -0.29400
C237        C  0.06487217  0.34132151  0.33918170    -0.05500
C238        C  0.07223474  0.36079244  0.32527137     0.06700
C239        C  0.06558560  0.37975916  0.34088099     0.00500
H240        H  0.06472836  0.32335099  0.33214825     0.08200
H241        H  0.06630038  0.39799056  0.33545661     0.07300
N242        N  0.00923242  0.31035197  0.40894099    -0.36600
N243        N  0.99320949  0.32037587  0.42411875    -0.28800
C244        C  0.98337791  0.30384796  0.43966557    -0.04000
C245        C  0.99346261  0.28247249  0.43355516     0.04600
C246        C  0.00983692  0.28740993  0.41411355     0.02700
H247        H  0.97133795  0.30745503  0.95587392     0.07800
H248        H  0.02289925  0.27564465  0.40625974     0.06600
N249        N  0.99374409  0.48890492  0.17105817    -0.27700
N250        N  0.97702605  0.47783248  0.18443742    -0.35600
C251        C  0.98195346  0.45496366  0.18539936     0.00600
C252        C  0.00283922  0.45130520  0.17221144     0.06600
C253        C  0.01003232  0.47323105  0.16364598    -0.06500
H254        H  0.97229883  0.44236080  0.19716051     0.07300
H255        H  0.02652575  0.47766630  0.15413303     0.08500
Cu256      Cu  0.95174652  0.49435653  0.20708929     0.44200
Cu257      Cu  0.99473367  0.52531709  0.16624516     0.42000
Cu258      Cu  0.95336567  0.55707798  0.20705209     0.43900
N259        N  0.93515575  0.51458491  0.23562970    -0.35100
N260        N  0.93560564  0.53768218  0.23529337    -0.29400
C261        C  0.92792016  0.54593876  0.25876328    -0.05500
C262        C  0.92278032  0.52718682  0.27494265     0.06700
C263        C  0.92732033  0.50752907  0.25949093     0.00500
H264        H  0.92880770  0.56420454  0.26465694     0.08200
H265        H  0.92776787  0.48964448  0.26614896     0.07300
N266        N  0.97632884  0.57320246  0.18088616    -0.36600
N267        N  0.99148944  0.56182037  0.16577383    -0.28800
C268        C  0.00292871  0.57740685  0.15035803    -0.04000
C269        C  0.99474975  0.59956510  0.15639990     0.04600
C270        C  0.97779902  0.59617860  0.17565890     0.02700
H271        H  0.01552891  0.57286473  0.13511997     0.07800
H272        H  0.96661771  0.60933229  0.18439785     0.06600
N273        N  0.96840460  0.49237870  0.42486772    -0.27700
N274        N  0.95219227  0.48238109  0.40939552    -0.35600
C275        C  0.95348706  0.45899980  0.41124342     0.00600
C276        C  0.97157652  0.45380237  0.42826617     0.06600
C277        C  0.98075953  0.47538788  0.43635725    -0.06500
H278        H  0.94419681  0.44673133  0.39828347     0.07300
H279        H  0.99664064  0.47845834  0.44775528     0.08500
Cu280      Cu  0.93442535  0.49914966  0.37944817     0.44200
Cu281      Cu  0.97606847  0.52848078  0.42646605     0.42000
Cu282      Cu  0.94921989  0.55920193  0.37332016     0.43900
N283        N  0.92624553  0.51797858  0.34592611    -0.35100
N284        N  0.93095447  0.54060380  0.34450321    -0.29400
C285        C  0.92767790  0.54761015  0.31953226    -0.05500
C286        C  0.92116376  0.52837458  0.30411798     0.06700
C287        C  0.92025207  0.50983097  0.32155677     0.00500
H288        H  0.93273240  0.56476220  0.31252832     0.08200
H289        H  0.91791874  0.49149268  0.31642372     0.07300
N290        N  0.97147878  0.57519076  0.40052468    -0.36600
N291        N  0.98094535  0.56457891  0.42088087    -0.28800
C292        C  0.99276368  0.58075311  0.43575464    -0.04000
C293        C  0.99095229  0.60251918  0.42379448     0.04600
C294        C  0.97730540  0.59800129  0.40147256     0.02700
H295        H  0.00096003  0.57707033  0.45454040     0.07800
H296        H  0.97128608  0.61051160  0.38722770     0.06600
C297        C  0.99082818  0.25594127  0.15729615    -0.09600
C298        C  0.01465062  0.25806563  0.16391836     0.06600
C299        C  0.02831509  0.23770910  0.16254824    -0.03400
C300        C  0.01858407  0.21695140  0.15182951    -0.07800
C301        C  0.99675884  0.21675507  0.13870968     0.05700
C302        C  0.98157914  0.23519577  0.14612706    -0.02800
Br303      Br  0.94823594  0.23137827  0.14917930    -0.02500
H304        H  0.97914451  0.27026579  0.16160766     0.09600
H305        H  0.02875050  0.20131837  0.15307169     0.07600
Br306      Br  0.06101264  0.23724662  0.17160885    -0.03000
C307        C  0.97921398  0.24240758  0.44581127    -0.09600
C308        C  0.99406917  0.26177272  0.45064282     0.06600
C309        C  0.01157180  0.26010018  0.46985087    -0.03400
C310        C  0.01316062  0.23993628  0.48470319    -0.07800
C311        C  0.99671785  0.22127983  0.48301124     0.05700
C312        C  0.98063665  0.22198839  0.46110470    -0.02800
Br313      Br  0.96304321  0.19599108  0.44622800    -0.02500
H314        H  0.96696971  0.24289296  0.42937862     0.09600
H315        H  0.02774053  0.23898167  0.49794169     0.07600
Br316      Br  0.03389950  0.28502752  0.47684512    -0.03000
C317        C  0.00969429  0.22437509  0.07719730    -0.09600
C318        C  0.98884196  0.21616378  0.08920482     0.06600
C319        C  0.96867123  0.21954110  0.07298790    -0.03400
C320        C  0.97116608  0.21784932  0.04502433    -0.07800
C321        C  0.99366720  0.21570981  0.03336856     0.05700
C322        C  0.01074145  0.22750332  0.04961038    -0.02800
Br323      Br  0.01738681  0.26016520  0.04390337    -0.02500
H324        H  0.02448349  0.22979145  0.08940258     0.09600
H325        H  0.95622681  0.22174275  0.03298374     0.07600
Br326      Br  0.94572497  0.24217902  0.08333469    -0.03000
C327        C  0.94687548  0.18537130  0.11020600    -0.09600
C328        C  0.96930873  0.18352098  0.12198550     0.06600
C329        C  0.97293737  0.16159509  0.13452131    -0.03400
C330        C  0.96068215  0.14137873  0.12520197    -0.07800
C331        C  0.94197855  0.14313198  0.10726048     0.05700
C332        C  0.93314074  0.16557042  0.10326359    -0.02800
Br333      Br  0.90339168  0.17020450  0.08672518    -0.02500
H334        H  0.93994492  0.20182502  0.10519276     0.09600
H335        H  0.96670456  0.12433438  0.13075611     0.07600
Br336      Br  0.99767107  0.15713156  0.15971121    -0.03000
C337        C  0.95562245  0.18347889  0.00525202    -0.09600
C338        C  0.98022381  0.18082778  0.50205861     0.06600
C339        C  0.98673723  0.15684748  0.49919210    -0.03400
C340        C  0.97373016  0.13942918  0.01228662    -0.07800
C341        C  0.95078582  0.14339161  0.02108444     0.05700
C342        C  0.94092491  0.16507576  0.01444674    -0.02800
Br343      Br  0.90814047  0.17105558  0.01804194    -0.02500
H344        H  0.94769286  0.19996965  0.00092780     0.09600
H345        H  0.98071317  0.12207307  0.01330120     0.07600
Br346      Br  0.99298526  0.14420252  0.46438915    -0.03000
C347        C  0.86408206  0.05141616  0.07298553    -0.09600
C348        C  0.84995413  0.05183434  0.05005245     0.06600
C349        C  0.85318562  0.07118056  0.03292029    -0.03400
C350        C  0.87231715  0.08672786  0.03679220    -0.07800
C351        C  0.88810227  0.08440267  0.05805810     0.05700
C352        C  0.88260521  0.06730042  0.07726350    -0.02800
Br353      Br  0.90024530  0.06348595  0.10947257    -0.02500
H354        H  0.86112684  0.03792860  0.08756266     0.09600
H355        H  0.87447110  0.10067153  0.02282677     0.07600
Br356      Br  0.83170929  0.08014708  0.00570776    -0.03000
C357        C  0.01687200  0.08131855  0.07122316    -0.09600
C358        C  0.02425936  0.08442958  0.04489347     0.06600
C359        C  0.00786307  0.08123287  0.02427837    -0.03400
C360        C  0.98393856  0.07852600  0.03032009    -0.07800
C361        C  0.97621155  0.07984116  0.05677421     0.05700
C362        C  0.99293331  0.07916582  0.07724681    -0.02800
Br363      Br  0.98355439  0.07873496  0.11376476    -0.02500
H364        H  0.02936835  0.08357501  0.08731386     0.09600
H365        H  0.97124053  0.07885618  0.01432609     0.07600
Br366      Br  0.01712265  0.08394264  0.98785632    -0.03000
C367        C  0.01949146  0.14420305  0.08669525    -0.09600
C368        C  0.04369793  0.14759543  0.08712992     0.06600
C369        C  0.05243808  0.16907014  0.09810889    -0.03400
C370        C  0.03651525  0.18615303  0.10765251    -0.07800
C371        C  0.01165765  0.18255824  0.10603666     0.05700
C372        C  0.00509544  0.16300146  0.09061085    -0.02800
Br373      Br  0.98234967  0.16665006  0.06460088    -0.02500
H374        H  0.01184941  0.12872656  0.07740425     0.09600
H375        H  0.04403158  0.20274829  0.11398958     0.07600
Br376      Br  0.08524392  0.17725055  0.09830763    -0.03000
C377        C  0.05604634  0.17535812  0.02862459    -0.09600
C378        C  0.05754472  0.15719608  0.01005798     0.06600
C379        C  0.04747435  0.16046612  0.98497702    -0.03400
C380        C  0.03189495  0.17925268  0.48146684    -0.07800
C381        C  0.02469806  0.19284536  0.50365011     0.05700
C382        C  0.04176039  0.19436984  0.02434491    -0.02800
Br383      Br  0.06082937  0.22204148  0.53046886    -0.02500
H384        H  0.06752078  0.17541824  0.04564199     0.09600
H385        H  0.02319198  0.18124174  0.46259254     0.07600
Br386      Br  0.05364683  0.13892912  0.95638579    -0.03000
C387        C  0.13997186  0.06893122  0.03070198    -0.09600
C388        C  0.14802162  0.06242502  0.05600491     0.06600
C389        C  0.13686045  0.07300971  0.07829717    -0.03400
C390        C  0.11955545  0.08989128  0.07489224    -0.07800
C391        C  0.11124125  0.09596463  0.04960163     0.05700
C392        C  0.12175480  0.08475962  0.02733801    -0.02800
Br393      Br  0.11008127  0.08683775  0.49158210    -0.02500
H394        H  0.14587594  0.05997988  0.01300407     0.09600
H395        H  0.11093164  0.09625592  0.09259541     0.07600
Br396      Br  0.14087014  0.06286961  0.11422858    -0.03000
C397        C  0.76260846  0.00246338  0.09501748    -0.09600
C398        C  0.78713526  0.00248694  0.09288114     0.06600
C399        C  0.79918330  0.98740639  0.10957350    -0.03400
C400        C  0.78715368  0.96836551  0.12083116    -0.07800
C401        C  0.76298196  0.96393707  0.11587184     0.05700
C402        C  0.75082204  0.98480955  0.10948216    -0.02800
Br403      Br  0.71859770  0.99039916  0.11902965    -0.02500
H404        H  0.75262846  0.01561255  0.08497537     0.09600
H405        H  0.79775569  0.95721782  0.13189706     0.07600
Br406      Br  0.83244880  0.99028598  0.11511063    -0.03000
C407        C  0.75696262  0.91774983  0.03921810    -0.09600
C408        C  0.74864264  0.93526816  0.02248768     0.06600
C409        C  0.73733062  0.95394296  0.03689343    -0.03400
C410        C  0.73670780  0.95408905  0.06490807    -0.07800
C411        C  0.74620555  0.93603020  0.08026833     0.05700
C412        C  0.74973796  0.91550714  0.06532338    -0.02800
Br413      Br  0.72515586  0.89200664  0.06629949    -0.02500
H414        H  0.76749602  0.90409109  0.03226370     0.09600
H415        H  0.72711243  0.96782981  0.07412773     0.07600
Br416      Br  0.71944784  0.97896804  0.52277449    -0.03000
C417        C  0.79181377  0.95519210  0.48482569    -0.09600
C418        C  0.76692891  0.95474136  0.48238991     0.06600
C419        C  0.75746225  0.97770318  0.47937891    -0.03400
C420        C  0.76984228  0.99760854  0.48954247    -0.07800
C421        C  0.79368436  0.99637193  0.49592186     0.05700
C422        C  0.80496781  0.97602084  0.48781547    -0.02800
Br423      Br  0.83842769  0.97582578  0.98300880    -0.02500
H424        H  0.80204636  0.93999627  0.48561976     0.09600
H425        H  0.76081452  0.01395411  0.49248320     0.07600
Br426      Br  0.73004873  0.98458697  0.45872641    -0.03000
C427        C  0.82678320  0.92695292  0.02720308    -0.09600
C428        C  0.84395734  0.91472226  0.04033900     0.06600
C429        C  0.86147349  0.92856343  0.05383028    -0.03400
C430        C  0.85917312  0.95352495  0.05473960    -0.07800
C431        C  0.83759677  0.96331276  0.04670013     0.05700
C432        C  0.82029859  0.94767307  0.03874632    -0.02800
Br433      Br  0.79968164  0.94235204  0.06713235    -0.02500
H434        H  0.81314965  0.91744336  0.01689711     0.09600
H435        H  0.87270157  0.96450294  0.06379884     0.07600
Br436      Br  0.88655475  0.91469391  0.07283343    -0.03000
C437        C  0.80591504  0.90091124  0.11010063    -0.09600
C438        C  0.79610817  0.88097721  0.09778805     0.06600
C439        C  0.77235631  0.87572998  0.10336857    -0.03400
C440        C  0.75810370  0.89306781  0.11557563    -0.07800
C441        C  0.76705454  0.91616525  0.11972528     0.05700
C442        C  0.79166576  0.91649178  0.12434792    -0.02800
Br443      Br  0.80301518  0.92034671  0.16015740    -0.02500
H444        H  0.82479812  0.90359391  0.11000829     0.09600
H445        H  0.73950026  0.88958978  0.11777689     0.07600
Br446      Br  0.75874246  0.84629123  0.09230150    -0.03000
C447        C  0.76590827  0.86839399  0.00481781    -0.09600
C448        C  0.79035684  0.87113279  0.00329449     0.06600
C449        C  0.79894395  0.88618334  0.48350616    -0.03400
C450        C  0.78413862  0.90331079  0.47299811    -0.07800
C451        C  0.76172498  0.90691010  0.48419514     0.05700
C452        C  0.75123258  0.88544276  0.49370135    -0.02800
Br453      Br  0.71825920  0.87936059  0.99733037    -0.02500
H454        H  0.75832240  0.85512418  0.01750537     0.09600
H455        H  0.79102127  0.91477183  0.45792249     0.07600
Br456      Br  0.83123899  0.88583810  0.47290457    -0.03000
C457        C  0.86702995  0.82167793  0.07425275    -0.09600
C458        C  0.85603822  0.82745751  0.05019760     0.06600
C459        C  0.86626527  0.81867723  0.02639007    -0.03400
C460        C  0.88444383  0.80270634  0.02733901    -0.07800
C461        C  0.89474059  0.79605258  0.05137929     0.05700
C462        C  0.88650361  0.80704254  0.07497544    -0.02800
Br463      Br  0.90287753  0.80625790  0.10834970    -0.02500
H464        H  0.86198258  0.83020938  0.09262770     0.09600
H465        H  0.89202176  0.79753170  0.00855736     0.07600
Br466      Br  0.86007894  0.83007924  0.99135708    -0.03000
C467        C  0.98781341  0.64822675  0.10748266    -0.09600
C468        C  0.00686303  0.66377954  0.11317755     0.06600
C469        C  0.02084397  0.65816655  0.13583667    -0.03400
C470        C  0.01705784  0.63689772  0.14908367    -0.07800
C471        C  0.99901907  0.62129065  0.14153609     0.05700
C472        C  0.98410233  0.62732213  0.12086766    -0.02800
Br473      Br  0.95861541  0.60711796  0.10952314    -0.02500
H474        H  0.97614319  0.65127503  0.09129108     0.09600
H475        H  0.02786931  0.63279780  0.16602499     0.07600
Br476      Br  0.04354527  0.67848684  0.15317431    -0.03000
C477        C  0.96561443  0.69537956  0.08260313    -0.09600
C478        C  0.98491796  0.70018059  0.10020255     0.06600
C479        C  0.98067251  0.71887942  0.11835059    -0.03400
C480        C  0.96561699  0.73719829  0.11082532    -0.07800
C481        C  0.95023678  0.73406608  0.08909577     0.05700
C482        C  0.94761584  0.71136120  0.07901996    -0.02800
Br483      Br  0.91827372  0.70102978  0.06408115    -0.02500
H484        H  0.96492977  0.68008484  0.06981886     0.09600
H485        H  0.96566869  0.75349454  0.12206010     0.07600
Br486      Br  0.98943449  0.71688939  0.15510821    -0.03000
C487        C  0.98422808  0.64541235  0.42758985    -0.09600
C488        C  0.99794633  0.62624625  0.43427431     0.06600
C489        C  0.01787196  0.63061380  0.45022792    -0.03400
C490        C  0.02170197  0.65287940  0.46173631    -0.07800
C491        C  0.00574967  0.67139126  0.45862641     0.05700
C492        C  0.98846459  0.66780527  0.43835752    -0.02800
Br493      Br  0.97121749  0.69187423  0.42108278    -0.02500
H494        H  0.96978139  0.64311732  0.41381719     0.09600
H495        H  0.03652927  0.65477543  0.47474331     0.07600
Br496      Br  0.04110506  0.60741937  0.45647355    -0.03000
C497        C  0.00829708  0.66481939  0.01977469    -0.09600
C498        C  0.00838712  0.68726859  0.00790689     0.06600
C499        C  0.00989675  0.70614315  0.02572288    -0.03400
C500        C  0.01080459  0.70378731  0.05236747    -0.07800
C501        C  0.01031074  0.68245362  0.06514690     0.05700
C502        C  0.00988593  0.66209830  0.04788964    -0.02800
Br503      Br  0.01330259  0.63023249  0.05859395    -0.02500
H504        H  0.00658585  0.64913675  0.50777870     0.09600
H505        H  0.01115163  0.71963249  0.06396935     0.07600
Br506      Br  0.01010303  0.73699440  0.01579083    -0.03000
C507        C  0.98097613  0.73151891  0.46753079    -0.09600
C508        C  0.98319354  0.70806452  0.47646082     0.06600
C509        C  0.96297328  0.69990141  0.99078201    -0.03400
C510        C  0.94816736  0.71589848  0.00389629    -0.07800
C511        C  0.95110984  0.74010285  0.00128976     0.05700
C512        C  0.96531667  0.74742110  0.97993526    -0.02800
Br513      Br  0.96496765  0.77913664  0.96818881    -0.02500
H514        H  0.99250681  0.73870811  0.45312566     0.09600
H515        H  0.93458227  0.70931073  0.01653050     0.07600
Br516      Br  0.95555006  0.66731209  0.99541030    -0.03000
C517        C  0.22897393  0.98079975  0.12533737    -0.09600
C518        C  0.24859264  0.98395785  0.10808444     0.06600
C519        C  0.25343990  0.00819508  0.10485160    -0.03400
C520        C  0.23404057  0.02360370  0.10271920    -0.07800
C521        C  0.21103422  0.01436654  0.10504386     0.05700
C522        C  0.20904311  0.99480193  0.12145370    -0.02800
Br523      Br  0.17937972  0.98607984  0.13648659    -0.02500
H524        H  0.22677370  0.96493241  0.13657431     0.09600
H525        H  0.23688612  0.04092326  0.09480159     0.07600
Br526      Br  0.28447850  0.02082225  0.10054614    -0.03000
C527        C  0.27072274  0.98101831  0.01842031    -0.09600
C528        C  0.27207979  0.95866669  0.00656436     0.06600
C529        C  0.28326647  0.94280570  0.02297423    -0.03400
C530        C  0.28101401  0.94561541  0.05091893    -0.07800
C531        C  0.26873062  0.96466397  0.06330067     0.05700
C532        C  0.26459707  0.98343089  0.04517605    -0.02800
Br533      Br  0.24675360  0.01119486  0.04772294    -0.02500
H534        H  0.26744499  0.99571038  0.00609335     0.09600
H535        H  0.29106000  0.93420912  0.06286991     0.07600
Br536      Br  0.31362610  0.93285804  0.01142454    -0.03000
C537        C  0.22857113  0.99117565  0.47652563    -0.09600
C538        C  0.23381076  0.96890939  0.48698049     0.06600
C539        C  0.21919033  0.96174718  0.00815238    -0.03400
C540        C  0.20047993  0.97439103  0.01675002    -0.07800
C541        C  0.20028277  0.99831959  0.01313880     0.05700
C542        C  0.21355544  0.00672980  0.49097174    -0.02800
Br543      Br  0.21425413  0.03882119  0.48077137    -0.02500
H544        H  0.23766414  0.99760059  0.45925622     0.09600
H545        H  0.18920337  0.96607656  0.03098108     0.07600
Br546      Br  0.22790646  0.93957287  0.03314160    -0.03000
C547        C  0.13843433  0.95915264  0.07694544    -0.09600
C548        C  0.14530177  0.97522050  0.05746342     0.06600
C549        C  0.14415221  0.96743563  0.03071467    -0.03400
C550        C  0.14476255  0.94334474  0.02486968    -0.07800
C551        C  0.14267669  0.92687591  0.04513614     0.05700
C552        C  0.13515260  0.93521589  0.07017790    -0.02800
Br553      Br  0.12022895  0.91464454  0.09499183    -0.02500
H554        H  0.13630304  0.96498007  0.09735399     0.09600
H555        H  0.14822290  0.93756814  0.00474957     0.07600
Br556      Br  0.14284417  0.98869610  0.50171656    -0.03000
C557        C  0.22047554  0.94233742  0.09290419    -0.09600
C558        C  0.24508520  0.93933568  0.09402410     0.06600
C559        C  0.25182211  0.91515553  0.09032266    -0.03400
C560        C  0.23494280  0.89801560  0.08107139    -0.07800
C561        C  0.21072632  0.90280927  0.08140319     0.05700
C562        C  0.20452849  0.92393801  0.09258111    -0.02800
Br563      Br  0.17616696  0.92705472  0.11172365    -0.02500
H564        H  0.21273146  0.95891480  0.08990266     0.09600
H565        H  0.24071332  0.88112678  0.07386499     0.07600
Br566      Br  0.28220770  0.90294185  0.09835223    -0.03000
C567        C  0.23164167  0.89283480  0.00157309    -0.09600
C568        C  0.20802367  0.89744264  0.99584698     0.06600
C569        C  0.20370057  0.91240399  0.47462079    -0.03400
C570        C  0.22210805  0.92633952  0.46421701    -0.07800
C571        C  0.24454889  0.92760066  0.47682889     0.05700
C572        C  0.24998475  0.90708540  0.49124212    -0.02800
Br573      Br  0.27947545  0.89206577  0.48797174    -0.02500
H574        H  0.23582403  0.87889869  0.01500621     0.09600
H575        H  0.21760656  0.93943456  0.44985883     0.07600
Br576      Br  0.17266726  0.91567256  0.46088313    -0.03000
C577        C  0.02196638  0.81668222  0.06433946    -0.09600
C578        C  0.03228080  0.79627226  0.05220668     0.06600
C579        C  0.01610554  0.78005953  0.04483427    -0.03400
C580        C  0.99748680  0.78868802  0.03094828    -0.07800
C581        C  0.98330383  0.80182523  0.04686259     0.05700
C582        C  0.99622635  0.81791798  0.06418744    -0.02800
Br583      Br  0.98038643  0.83767556  0.08903803    -0.02500
H584        H  0.03262730  0.82908941  0.07567039     0.09600
H585        H  0.98989717  0.77831128  0.01513916     0.07600
Br586      Br  0.00840739  0.76411569  0.07756668    -0.03000
C587        C  0.07244961  0.71011495  0.08152049    -0.09600
C588        C  0.07031638  0.73411786  0.08677535     0.06600
C589        C  0.05320222  0.74033400  0.10540434    -0.03400
C590        C  0.03458268  0.72465805  0.11142285    -0.07800
C591        C  0.03336505  0.70125743  0.10128015     0.05700
C592        C  0.05505224  0.69370790  0.08965891    -0.02800
Br593      Br  0.06166904  0.66155160  0.08225874    -0.02500
H594        H  0.08735508  0.70407017  0.07037851     0.09600
H595        H  0.02095799  0.73233320  0.12266531     0.07600
Br596      Br  0.05387133  0.77105224  0.12145456    -0.03000
C597        C  0.04985082  0.74688669  0.97499478    -0.09600
C598        C  0.06420439  0.74057876  0.99657899     0.06600
C599        C  0.06785210  0.71658015  0.99930519    -0.03400
C600        C  0.05206552  0.70010109  0.48790663    -0.07800
C601        C  0.03227279  0.70697059  0.47261016     0.05700
C602        C  0.03549084  0.72962265  0.96156812    -0.02800
Br603      Br  0.02954539  0.73398858  0.92446125    -0.02500
H604        H  0.04962115  0.76489786  0.96872392     0.09600
H605        H  0.05358983  0.68252643  0.49493494     0.07600
Br606      Br  0.09484236  0.70568924  0.51749294    -0.03000
C607        C  0.12390790  0.81471672  0.06741717    -0.09600
C608        C  0.12154451  0.79973189  0.04507880     0.06600
C609        C  0.13899726  0.80192729  0.02498243    -0.03400
C610        C  0.15418333  0.82157778  0.02493879    -0.07800
C611        C  0.15366481  0.83878757  0.04528251     0.05700
C612        C  0.13952304  0.83386916  0.06776923    -0.02800
Br613      Br  0.13899840  0.85341693  0.09915999    -0.02500
H614        H  0.11223111  0.81245497  0.08422681     0.09600
H615        H  0.16632545  0.82298379  0.00862425     0.07600
Br616      Br  0.14665608  0.77800872  0.99933502    -0.03000
C617        C  0.70303527  0.92728203  0.43647502    -0.09600
C618        C  0.68225958  0.92719219  0.45146869     0.06600
C619        C  0.68383026  0.92935840  0.47919850    -0.03400
C620        C  0.70574353  0.93157474  0.49136015    -0.07800
C621        C  0.72704197  0.93211543  0.47673596     0.05700
C622        C  0.72513997  0.92969913  0.44861387    -0.02800
Br623      Br  0.75177002  0.93011218  0.42514251    -0.02500
H624        H  0.70207220  0.92540415  0.41505628     0.09600
H625        H  0.70561052  0.93082662  0.51270109     0.07600
Br626      Br  0.65704980  0.92610704  0.00214200    -0.03000
C627        C  0.70574508  0.93617737  0.16913139    -0.09600
C628        C  0.68479919  0.93104192  0.15552113     0.06600
C629        C  0.68534538  0.92887321  0.12775169    -0.03400
C630        C  0.70646300  0.93169375  0.11419237    -0.07800
C631        C  0.72805741  0.93654429  0.12736751     0.05700
C632        C  0.72706273  0.93932756  0.15547751    -0.02800
Br633      Br  0.75329822  0.94925049  0.17678388    -0.02500
H634        H  0.70543627  0.93817266  0.19056646     0.09600
H635        H  0.70525477  0.92994054  0.09296577     0.07600
Br636      Br  0.65825063  0.92019237  0.10682804    -0.03000
C637        C  0.30582025  0.94735205  0.42970537    -0.09600
C638        C  0.31748827  0.96878327  0.43395090     0.06600
C639        C  0.30527456  0.98696783  0.44640944    -0.03400
C640        C  0.28290054  0.98278002  0.45683521    -0.07800
C641        C  0.27225730  0.96015832  0.45688819     0.05700
C642        C  0.28309126  0.94323440  0.43978482    -0.02800
Br643      Br  0.26727174  0.91641500  0.42413917    -0.02500
H644        H  0.31412369  0.93400432  0.41761471     0.09600
H645        H  0.27500163  0.99745748  0.96646907     0.07600
Br646      Br  0.31921843  0.01746599  0.95232085    -0.03000
C647        C  0.32684366  0.95991613  0.12064974    -0.09600
C648        C  0.32311740  0.95189399  0.14626843     0.06600
C649        C  0.30005748  0.94717368  0.15471455    -0.03400
C650        C  0.28114177  0.95050562  0.13736871    -0.07800
C651        C  0.28442247  0.95882454  0.11121739     0.05700
C652        C  0.30826905  0.96422160  0.10343001    -0.02800
Br653      Br  0.31935558  0.97992970  0.07195746    -0.02500
H654        H  0.34461762  0.96431774  0.11450722     0.09600
H655        H  0.26362891  0.94639318  0.14442732     0.07600
Br656      Br  0.29372161  0.93557323  0.18955979    -0.03000
N657        N  0.45467391  0.94945379  0.67472790    -0.27700
N658        N  0.46673206  0.96658955  0.68664881    -0.35600
C659        C  0.48976917  0.96217247  0.68497456     0.00600
C660        C  0.49246571  0.94109059  0.67173757     0.06600
C661        C  0.46987501  0.93334631  0.66570309    -0.06500
H662        H  0.50337289  0.97234344  0.69504299     0.07300
H663        H  0.46481666  0.91670822  0.65670050     0.08500
Cu664      Cu  0.45190923  0.99203089  0.71060111     0.44200
Cu665      Cu  0.41796565  0.94813260  0.67350200     0.42000
Cu666      Cu  0.38905116  0.99192556  0.71414364     0.43900
N667        N  0.43364312  0.01028714  0.73947655    -0.35100
N668        N  0.41047418  0.01069792  0.74025778    -0.29400
C669        C  0.40370107  0.02016370  0.76352387    -0.05500
C670        C  0.42352904  0.02551612  0.77845125     0.06700
C671        C  0.44223967  0.01920470  0.76244548     0.00500
H672        H  0.38567594  0.02037577  0.77028998     0.08200
H673        H  0.46052357  0.01865260  0.76816682     0.07300
N674        N  0.37112696  0.96819336  0.68976941    -0.36600
N675        N  0.38156193  0.95240696  0.67459372    -0.28800
C676        C  0.36531025  0.94215038  0.65863475    -0.04000
C677        C  0.34354548  0.95160270  0.66435379     0.04600
C678        C  0.34803754  0.96811471  0.68415505     0.02700
H679        H  0.36932807  0.93021439  0.64243965     0.07800
H680        H  0.33587156  0.98086708  0.69186342     0.06600
N681        N  0.45348164  0.96708749  0.91684648    -0.27700
N682        N  0.46611097  0.98344135  0.90475738    -0.35600
C683        C  0.48896163  0.97796954  0.90571969     0.00600
C684        C  0.49097619  0.95699272  0.91859518     0.06600
C685        C  0.46815061  0.95043108  0.92515939    -0.06500
H686        H  0.50280603  0.98734547  0.89541736     0.07300
H687        H  0.46254434  0.93423621  0.93422534     0.08500
Cu688      Cu  0.45231475  0.00868689  0.88054948     0.44200
Cu689      Cu  0.41653977  0.96723022  0.91952496     0.42000
Cu690      Cu  0.39057979  0.01095881  0.87807009     0.43900
N691        N  0.43468145  0.02308443  0.84898390    -0.35100
N692        N  0.41158237  0.02440210  0.84861718    -0.29400
C693        C  0.40444896  0.02854184  0.82378988    -0.05500
C694        C  0.42395401  0.02935517  0.80743988     0.06700
C695        C  0.44290315  0.02614712  0.82418295     0.00500
H696        H  0.38628830  0.02748878  0.81755728     0.08200
H697        H  0.46083869  0.02295348  0.81824628     0.07300
N698        N  0.37128606  0.98940231  0.90244222    -0.36600
N699        N  0.38015165  0.97307965  0.91761801    -0.28800
C700        C  0.36225728  0.96246303  0.93068001    -0.04000
C701        C  0.34138422  0.97274892  0.92320480     0.04600
C702        C  0.34786762  0.98959369  0.90522265     0.02700
H703        H  0.36431430  0.94883515  0.94511388     0.07800
H704        H  0.33640622  0.00148620  0.89519796     0.06600
N705        N  0.55206027  0.92099244  0.67631308    -0.27700
N706        N  0.54043539  0.90366789  0.68782699    -0.35600
C707        C  0.51724503  0.90694934  0.68505363     0.00600
C708        C  0.51406374  0.92746471  0.67148269     0.06600
C709        C  0.53649794  0.93598160  0.66641206    -0.06500
H710        H  0.50378682  0.89681384  0.69508140     0.07300
H711        H  0.54114095  0.95275559  0.65804879     0.08500
Cu712      Cu  0.55585671  0.88071594  0.71372524     0.44200
Cu713      Cu  0.58843316  0.92529126  0.67768642     0.42000
Cu714      Cu  0.61891372  0.88624982  0.72007208     0.43900
N715        N  0.57454369  0.86783526  0.74545471    -0.35100
N716        N  0.59765752  0.86951085  0.74728887    -0.29400
C717        C  0.60419487  0.86404793  0.77197516    -0.05500
C718        C  0.58425159  0.85912987  0.78668367     0.06700
C719        C  0.56574769  0.86149494  0.76915314     0.00500
H720        H  0.62187908  0.86644336  0.77947074     0.08200
H721        H  0.54723678  0.86125510  0.77400772     0.07300
N722        N  0.63605169  0.90917719  0.69509253    -0.36600
N723        N  0.62487969  0.92398300  0.67992292    -0.28800
C724        C  0.64068651  0.93538644  0.66482050    -0.04000
C725        C  0.66281402  0.92708499  0.67051061     0.04600
C726        C  0.65922147  0.91071920  0.69006873     0.02700
H727        H  0.63624148  0.94782629  0.64974535     0.07800
H728        H  0.67227481  0.89961946  0.69870331     0.06600
N729        N  0.54945808  0.93206220  0.91867861    -0.27700
N730        N  0.53711788  0.91521495  0.90656056    -0.35600
C731        C  0.51429229  0.92086696  0.90654729     0.00600
C732        C  0.51205487  0.94244388  0.91887338     0.06600
C733        C  0.53471259  0.94919939  0.92604659    -0.06500
H734        H  0.50064126  0.91096661  0.89623236     0.07300
H735        H  0.54015515  0.96567770  0.93515552     0.08500
Cu736      Cu  0.55182231  0.88821337  0.88464663     0.44200
Cu737      Cu  0.58600760  0.93111917  0.92359545     0.42000
Cu738      Cu  0.61414250  0.88463245  0.88632641     0.43900
N739        N  0.57088649  0.87060774  0.85580018    -0.35100
N740        N  0.59399140  0.86927694  0.85666279    -0.29400
C741        C  0.60195363  0.86220058  0.83282540    -0.05500
C742        C  0.58299426  0.85927680  0.81588415     0.06700
C743        C  0.56351293  0.86446996  0.83123959     0.00500
H744        H  0.62033115  0.86220416  0.82737594     0.08200
H745        H  0.54576455  0.86669677  0.82420339     0.07300
N746        N  0.63174181  0.90640231  0.91290021    -0.36600
N747        N  0.62179505  0.92353032  0.92653804    -0.28800
C748        C  0.63824849  0.93400918  0.94208848    -0.04000
C749        C  0.65945848  0.92287805  0.93795766     0.04600
C750        C  0.65463757  0.90562814  0.91916019     0.02700
H751        H  0.63498514  0.94857614  0.95547240     0.07800
H752        H  0.66677264  0.89302162  0.91107180     0.06600
C753        C  0.09917894  0.78402105  0.54392759     0.86000
C754        C  0.07704102  0.79891276  0.54977133    -0.54200
C755        C  0.05667441  0.78634817  0.55094759     0.09000
C756        C  0.06058601  0.75951912  0.54555737     0.19900
C757        C  0.09864566  0.76472572  0.56563894    -0.54900
C758        C  0.07811113  0.75191760  0.56643872     0.09100
C759        C  0.09269794  0.77096440  0.51725953    -0.54500
C760        C  0.07268963  0.75756919  0.51823829     0.09600
H761        H  0.07743144  0.81786516  0.55165935     0.14200
H762        H  0.04510105  0.74803830  0.54676385    -0.00100
H763        H  0.11280330  0.76225597  0.57966935     0.14500
H764        H  0.10194211  0.77241756  0.49873727     0.14200
C765        C  0.16579689  0.86291302  0.54228955     0.86000
C766        C  0.17984203  0.86784993  0.51619729    -0.54200
C767        C  0.18896614  0.89008039  0.51481628     0.09000
C768        C  0.18277918  0.90509369  0.53944459     0.19900
C769        C  0.18405192  0.86919632  0.56440556    -0.54900
C770        C  0.19303503  0.89148229  0.56293378     0.09100
C771        C  0.14713229  0.88241092  0.54370630    -0.54500
C772        C  0.15608865  0.90448100  0.54244000     0.09600
H773        H  0.18411495  0.85497127  0.50108700     0.14200
H774        H  0.18799239  0.92338701  0.53856964    -0.00100
H775        H  0.18930503  0.85714876  0.57965110     0.14500
H776        H  0.12842840  0.87892996  0.54588899     0.14200
C777        C  0.25614122  0.95325357  0.98098541    -0.02900
C778        C  0.26197326  0.96229923  0.59401478    -0.02900
C779        C  0.00732943  0.69356025  0.97737309    -0.02900
C780        C  0.00921331  0.68647990  0.59631192    -0.02900
C781        C  0.83827604  0.84732106  0.55021718     0.86000
C782        C  0.82357587  0.85110199  0.57615331    -0.54200
C783        C  0.80924391  0.86998766  0.57521070     0.09000
C784        C  0.81098984  0.88280668  0.54901637     0.19900
C785        C  0.81926810  0.84577052  0.52796580    -0.54900
C786        C  0.80556066  0.86499873  0.52658032     0.09100
C787        C  0.85142474  0.87100427  0.54610038    -0.54500
C788        C  0.83712984  0.88977090  0.54573660     0.09600
H789        H  0.82464434  0.84045367  0.59371658     0.14200
H790        H  0.79923495  0.89753421  0.54956733    -0.00100
H791        H  0.81716869  0.83121867  0.51408637     0.14500
H792        H  0.87024916  0.87248663  0.54300541     0.14200
C793        C  0.91766794  0.78240128  0.55038153     0.86000
C794        C  0.92174018  0.76732333  0.52447754    -0.54200
C795        C  0.94293230  0.75668721  0.52326581     0.09000
C796        C  0.95761233  0.76181616  0.54838651     0.19900
C797        C  0.92127580  0.76446927  0.57288631    -0.54900
C798        C  0.94263880  0.75397946  0.57213712     0.09100
C799        C  0.93890799  0.79963839  0.55211814    -0.54500
C800        C  0.96006857  0.78923418  0.55116519     0.09600
H801        H  0.90876026  0.76412840  0.50906732     0.14200
H802        H  0.97379023  0.75185675  0.54711171    -0.00100
H803        H  0.90784373  0.75973675  0.58722221     0.14500
H804        H  0.93718618  0.81852811  0.55243216     0.14200
C805        C  0.75128813  0.93244859  0.99093606    -0.02900
C806        C  0.75148101  0.93828953  0.61147672    -0.02900
C807        C  0.08748234  0.10822707  0.54720573     0.86000
C808        C  0.08510527  0.12558149  0.52393264    -0.54200
C809        C  0.06289942  0.13389271  0.52080459     0.09000
C810        C  0.04564828  0.12469081  0.54147419     0.19900
C811        C  0.07896106  0.12321676  0.57153100    -0.54900
C812        C  0.05686081  0.13192866  0.56838699     0.09100
C813        C  0.06797536  0.08942612  0.54333758    -0.54500
C814        C  0.04617839  0.09808860  0.54048995     0.09600
H815        H  0.10016182  0.13323290  0.51382359     0.14200
H816        H  0.02776766  0.13141304  0.53783957    -0.00100
H817        H  0.08931931  0.12708902  0.58911682     0.14500
H818        H  0.07097591  0.07080219  0.54509607     0.14200
C819        C  0.16298856  0.04024301  0.55854049     0.86000
C820        C  0.18136427  0.04021864  0.58138185    -0.54200
C821        C  0.19212330  0.01930782  0.58463461     0.09000
C822        C  0.18429969  0.00082029  0.56342061     0.19900
C823        C  0.17774313  0.03303468  0.53364141    -0.54900
C824        C  0.18867272  0.01201031  0.53566236     0.09100
C825        C  0.14642920  0.01888592  0.56295167    -0.54500
C826        C  0.15734330  0.99803137  0.56483270     0.09600
H827        H  0.18582945  0.05548246  0.59352769     0.14200
H828        H  0.19331587  0.98429942  0.56689382    -0.00100
H829        H  0.17850152  0.04299254  0.01567967     0.14500
H830        H  0.12746421  0.01991084  0.56116739     0.14200
C831        C  0.83239876  0.03120767  0.54651976     0.86000
C832        C  0.84496633  0.00737009  0.54902904    -0.54200
C833        C  0.83017595  0.98835470  0.54857021     0.09000
C834        C  0.80400188  0.99530464  0.54568580     0.19900
C835        C  0.81844677  0.02772857  0.52001747    -0.54900
C836        C  0.80318925  0.00900486  0.52000775     0.09100
C837        C  0.81388945  0.03103371  0.56917744    -0.54500
C838        C  0.79923912  0.01197089  0.56892950     0.09600
H839        H  0.86391683  0.00577789  0.54988947     0.14200
H840        H  0.79057624  0.98120759  0.54467526    -0.00100
H841        H  0.82351409  0.03531982  0.00132120     0.14500
H842        H  0.81435052  0.04342554  0.58574778     0.14200
C843        C  0.91150828  0.09813604  0.55951870     0.86000
C844        C  0.91451542  0.11314629  0.58526831    -0.54200
C845        C  0.93621596  0.12345909  0.58814074     0.09000
C846        C  0.95266817  0.11772914  0.56473753     0.19900
C847        C  0.91788561  0.11568877  0.53696600    -0.54900
C848        C  0.93965354  0.12610112  0.53978986     0.09100
C849        C  0.93207484  0.08087772  0.55887920    -0.54500
C850        C  0.95345631  0.09122327  0.56187494     0.09600
H851        H  0.90023112  0.11646102  0.59904410     0.14200
H852        H  0.97062439  0.12433744  0.56736238    -0.00100
H853        H  0.90698207  0.11934719  0.52003443     0.14500
H854        H  0.92991202  0.06221988  0.55500708     0.14200
C855        C  0.99859068  0.20256625  0.00524903    -0.02900
C856        C  0.99124165  0.20009364  0.61453979    -0.02900
N857        N  0.02535675  0.39266676  0.67832979    -0.27700
N858        N  0.03955886  0.40468380  0.69445219    -0.35600
C859        C  0.03507748  0.42760607  0.69260119     0.00600
C860        C  0.01713233  0.43029344  0.67455095     0.06600
C861        C  0.01114531  0.40776026  0.66614927    -0.06500
H862        H  0.04268148  0.44108248  0.70541739     0.07300
H863        H  0.99660034  0.40263586  0.65340456     0.08500
Cu864      Cu  0.06032489  0.38958660  0.72297317     0.44200
Cu865      Cu  0.02464203  0.35607714  0.67609076     0.42000
Cu866      Cu  0.06225359  0.32743484  0.72407215     0.43900
N867        N  0.07313912  0.37147883  0.75496718    -0.35100
N868        N  0.07431384  0.34844258  0.75507609    -0.29400
C869        C  0.07754278  0.34142635  0.78010034    -0.05500
C870        C  0.07782794  0.36094356  0.79673532     0.06700
C871        C  0.07541415  0.37974072  0.78000667     0.00500
H872        H  0.07617333  0.32336645  0.78607641     0.08200
H873        H  0.07207154  0.39764631  0.78591686     0.07300
N874        N  0.04223461  0.30966902  0.69580114    -0.36600
N875        N  0.02840668  0.31982193  0.67851177    -0.28800
C876        C  0.01699324  0.30303314  0.66430241    -0.04000
C877        C  0.02399890  0.28129416  0.67299606     0.04600
C878        C  0.03983752  0.28631294  0.69321277     0.02700
H879        H  0.00421426  0.30638275  0.64900341     0.07800
H880        H  0.04818596  0.27404772  0.70612187     0.06600
N881        N  0.99100277  0.39351111  0.92412691    -0.27700
N882        N  0.00891895  0.40499073  0.91331592    -0.35600
C883        C  0.00538332  0.42809209  0.91551894     0.00600
C884        C  0.98412852  0.43156916  0.92793724     0.06600
C885        C  0.97526074  0.40928201  0.93283419    -0.06500
H886        H  0.01643954  0.44133529  0.90646790     0.07300
H887        H  0.95821350  0.40482789  0.44095848     0.08500
Cu888      Cu  0.03495893  0.39004254  0.89029244     0.44200
Cu889      Cu  0.98853291  0.35679395  0.92533255     0.42000
Cu890      Cu  0.03276054  0.32832204  0.88540172     0.43900
N891        N  0.05451961  0.37161747  0.86262074    -0.35100
N892        N  0.05396097  0.34855034  0.86141139    -0.29400
C893        C  0.06482374  0.34132182  0.83919341    -0.05500
C894        C  0.07219767  0.36079120  0.82528709     0.06700
C895        C  0.06554567  0.37975959  0.84089187     0.00500
H896        H  0.06468104  0.32335086  0.83216148     0.08200
H897        H  0.06626927  0.39799112  0.83546878     0.07300
N898        N  0.00917810  0.31036666  0.90896433    -0.36600
N899        N  0.99317943  0.32039505  0.92417170    -0.28800
C900        C  0.98335477  0.30386621  0.93972275    -0.04000
C901        C  0.99341668  0.28248518  0.93358341     0.04600
C902        C  0.00977233  0.28742107  0.91412133     0.02700
H903        H  0.97133933  0.30743557  0.45579618     0.07800
H904        H  0.02281884  0.27565071  0.90624263     0.06600
N905        N  0.99373522  0.48891740  0.67107501    -0.27700
N906        N  0.97701441  0.47784437  0.68444983    -0.35600
C907        C  0.98194730  0.45497720  0.68542272     0.00600
C908        C  0.00283829  0.45132070  0.67224491     0.06600
C909        C  0.01002945  0.47324551  0.66367526    -0.06500
H910        H  0.97228914  0.44237401  0.69718002     0.07300
H911        H  0.02652360  0.47768139  0.65416423     0.08500
Cu912      Cu  0.95171472  0.49436685  0.70707358     0.44200
Cu913      Cu  0.99472042  0.52532836  0.66624524     0.42000
Cu914      Cu  0.95335472  0.55708956  0.70704095     0.43900
N915        N  0.93512648  0.51460062  0.73561045    -0.35100
N916        N  0.93558872  0.53769799  0.73527882    -0.29400
C917        C  0.92791684  0.54595553  0.75875393    -0.05500
C918        C  0.92277335  0.52720374  0.77493164     0.06700
C919        C  0.92729533  0.50754559  0.75947341     0.00500
H920        H  0.92881982  0.56421983  0.76465186     0.08200
H921        H  0.92773832  0.48965998  0.76612853     0.07300
N922        N  0.97631623  0.57321440  0.68087642    -0.36600
N923        N  0.99147753  0.56183237  0.66576524    -0.28800
C924        C  0.00291690  0.57741943  0.65034986    -0.04000
C925        C  0.99473633  0.59957760  0.65639112     0.04600
C926        C  0.97778530  0.59619036  0.67564927     0.02700
H927        H  0.01551879  0.57287796  0.63511329     0.07800
H928        H  0.96660367  0.60934361  0.68438866     0.06600
N929        N  0.96839428  0.49239570  0.92489066    -0.27700
N930        N  0.95220115  0.48239229  0.90939783    -0.35600
C931        C  0.95349759  0.45901220  0.91125481     0.00600
C932        C  0.97156706  0.45382150  0.92830749     0.06600
C933        C  0.98073844  0.47540999  0.93640428    -0.06500
H934        H  0.94422474  0.44673946  0.89828419     0.07300
H935        H  0.99660738  0.47848576  0.94782240     0.08500
Cu936      Cu  0.93445794  0.49915197  0.87942681     0.44200
Cu937      Cu  0.97605215  0.52849666  0.92648510     0.42000
Cu938      Cu  0.94922522  0.55921172  0.87331783     0.43900
N939        N  0.92627343  0.51798390  0.84590992    -0.35100
N940        N  0.93097350  0.54061104  0.84449198    -0.29400
C941        C  0.92768733  0.54762146  0.81952409    -0.05500
C942        C  0.92117362  0.52838673  0.80410784     0.06700
C943        C  0.92027458  0.50983934  0.82154142     0.00500
H944        H  0.93272997  0.56477785  0.81252347     0.08200
H945        H  0.91794275  0.49150158  0.81640511     0.07300
N946        N  0.97147913  0.57519989  0.90052783    -0.36600
N947        N  0.98093818  0.56458980  0.92088970    -0.28800
C948        C  0.99275927  0.58076269  0.93576179    -0.04000
C949        C  0.99095712  0.60252601  0.92379489     0.04600
C950        C  0.97731321  0.59800853  0.90147071     0.02700
H951        H  0.00095078  0.57708143  0.95455071     0.07800
H952        H  0.97130082  0.61051811  0.88722118     0.06600
C953        C  0.99084269  0.25595107  0.65729008    -0.09600
C954        C  0.01466518  0.25808213  0.66390786     0.06600
C955        C  0.02833621  0.23773031  0.66253657    -0.03400
C956        C  0.01861062  0.21696929  0.65182002    -0.07800
C957        C  0.99678209  0.21676538  0.63870691     0.05700
C958        C  0.98159793  0.23520180  0.64612678    -0.02800
Br959      Br  0.94825683  0.23137305  0.64919547    -0.02500
H960        H  0.97915552  0.27027233  0.66160347     0.09600
H961        H  0.02878169  0.20133942  0.65306225     0.07600
Br962      Br  0.06103460  0.23728025  0.67159600    -0.03000
C963        C  0.97919876  0.24240171  0.94581375    -0.09600
C964        C  0.99403474  0.26177902  0.95066135     0.06600
C965        C  0.01153470  0.26011335  0.96987347    -0.03400
C966        C  0.01313885  0.23994392  0.98471414    -0.07800
C967        C  0.99670922  0.22127687  0.98301215     0.05700
C968        C  0.98063296  0.22197923  0.96110077    -0.02800
Br969      Br  0.96306460  0.19597042  0.94621196    -0.02500
H970        H  0.96695923  0.24288174  0.92937622     0.09600
H971        H  0.02771907  0.23899375  0.99795264     0.07600
Br972      Br  0.03384034  0.28505649  0.97688534    -0.03000
C973        C  0.00971402  0.22438435  0.57719200    -0.09600
C974        C  0.98886362  0.21617358  0.58920453     0.06600
C975        C  0.96869010  0.21955514  0.57299466    -0.03400
C976        C  0.97117779  0.21786197  0.54503076    -0.07800
C977        C  0.99367602  0.21572014  0.53336860     0.05700
C978        C  0.01075458  0.22751306  0.54960448    -0.02800
Br979      Br  0.01740608  0.26017236  0.54388649    -0.02500
H980        H  0.02450665  0.22979857  0.58939313     0.09600
H981        H  0.95623698  0.22176015  0.53299488     0.07600
Br982      Br  0.94575525  0.24220140  0.58335052    -0.03000
C983        C  0.94689712  0.18538518  0.61020797    -0.09600
C984        C  0.96933050  0.18353263  0.62198625     0.06600
C985        C  0.97295744  0.16160702  0.63452333    -0.03400
C986        C  0.96069882  0.14139174  0.62520655    -0.07800
C987        C  0.94199414  0.14314671  0.60726663     0.05700
C988        C  0.93315982  0.16558608  0.60326774    -0.02800
Br989      Br  0.90341253  0.17022456  0.58672776    -0.02500
H990        H  0.93996800  0.20183929  0.60519367     0.09600
H991        H  0.96671902  0.12434690  0.63076182     0.07600
Br992      Br  0.99769278  0.15714213  0.65971103    -0.03000
C993        C  0.95561922  0.18349504  0.50526437    -0.09600
C994        C  0.98022830  0.18081681  0.00205349     0.06600
C995        C  0.98674851  0.15683767  0.99919489    -0.03400
C996        C  0.97371960  0.13944066  0.51228685    -0.07800
C997        C  0.95077807  0.14340688  0.52109154     0.05700
C998        C  0.94091947  0.16509322  0.51445789    -0.02800
Br999      Br  0.90813507  0.17107569  0.51804879    -0.02500
H1000       H  0.94769190  0.19998763  0.50094365     0.09600
H1001       H  0.98069956  0.12208290  0.51329696     0.07600
Br1002     Br  0.99301679  0.14418823  0.96439904    -0.03000
C1003       C  0.86407881  0.05143598  0.57301019    -0.09600
C1004       C  0.84995173  0.05185091  0.55007584     0.06600
C1005       C  0.85318441  0.07119534  0.53294070    -0.03400
C1006       C  0.87231301  0.08674563  0.53681477    -0.07800
C1007       C  0.88809702  0.08442393  0.55808212     0.05700
C1008       C  0.88259971  0.06732319  0.57728908    -0.02800
Br1009     Br  0.90023597  0.06351549  0.60950192    -0.02500
H1010       H  0.86112425  0.03794906  0.58758825     0.09600
H1011       H  0.87446759  0.10068680  0.52284655     0.07600
Br1012     Br  0.83172102  0.08015232  0.50571079    -0.03000
C1013       C  0.01686801  0.08131702  0.57122148    -0.09600
C1014       C  0.02425665  0.08442695  0.54489214     0.06600
C1015       C  0.00785908  0.08123665  0.52427691    -0.03400
C1016       C  0.98393375  0.07853573  0.53031863    -0.07800
C1017       C  0.97620692  0.07985092  0.55677293     0.05700
C1018       C  0.99292875  0.07917094  0.57724510    -0.02800
Br1019     Br  0.98355009  0.07874412  0.61376310    -0.02500
H1020       H  0.02936468  0.08357008  0.58731235     0.09600
H1021       H  0.97123582  0.07886975  0.51432476     0.07600
Br1022     Br  0.01711874  0.08394763  0.48785495    -0.03000
C1023       C  0.01950170  0.14420692  0.58669629    -0.09600
C1024       C  0.04370857  0.14759499  0.58712801     0.06600
C1025       C  0.05245368  0.16906898  0.59810441    -0.03400
C1026       C  0.03653485  0.18615611  0.60764690    -0.07800
C1027       C  0.01167690  0.18256562  0.60603309     0.05700
C1028       C  0.00511021  0.16300895  0.59060917    -0.02800
Br1029     Br  0.98236464  0.16665910  0.56459906    -0.02500
H1030       H  0.01185588  0.12873050  0.57740891     0.09600
H1031       H  0.04405446  0.20275093  0.61398038     0.07600
Br1032     Br  0.08526108  0.17724211  0.59830330    -0.03000
C1033       C  0.05605046  0.17535054  0.52861785    -0.09600
C1034       C  0.05754103  0.15718681  0.51005260     0.06600
C1035       C  0.04746117  0.16045438  0.48497604    -0.03400
C1036       C  0.03190364  0.17926080  0.98146503    -0.07800
C1037       C  0.02469870  0.19284937  0.00364821     0.05700
C1038       C  0.04176421  0.19436308  0.52434340    -0.02800
Br1039     Br  0.06082187  0.22205130  0.03046389    -0.02500
H1040       H  0.06752915  0.17540975  0.54563193     0.09600
H1041       H  0.02320332  0.18124840  0.96258875     0.07600
Br1042     Br  0.05361383  0.13890977  0.45638645    -0.03000
C1043       C  0.13997749  0.06892640  0.53070105    -0.09600
C1044       C  0.14801404  0.06240705  0.55600497     0.06600
C1045       C  0.13684457  0.07298426  0.57829603    -0.03400
C1046       C  0.11954417  0.08987040  0.57489047    -0.07800
C1047       C  0.11124232  0.09595688  0.54959874     0.05700
C1048       C  0.12176374  0.08475894  0.52733526    -0.02800
Br1049     Br  0.11005677  0.08682352  0.99158979    -0.02500
H1050       H  0.14588882  0.05998279  0.51300156     0.09600
H1051       H  0.11091275  0.09622815  0.59259221     0.07600
Br1052     Br  0.14083638  0.06282645  0.61422322    -0.03000
C1053       C  0.76261784  0.00247656  0.59505924    -0.09600
C1054       C  0.78714424  0.00250069  0.59292283     0.06600
C1055       C  0.79919317  0.98742124  0.60961623    -0.03400
C1056       C  0.78716383  0.96837984  0.62087417    -0.07800
C1057       C  0.76299258  0.96395003  0.61591215     0.05700
C1058       C  0.75083180  0.98482224  0.60952258    -0.02800
Br1059     Br  0.71860602  0.99041085  0.61906468    -0.02500
H1060       H  0.75263747  0.01562507  0.58501635     0.09600
H1061       H  0.79776760  0.95722870  0.63193602     0.07600
Br1062     Br  0.83245961  0.99030029  0.61514730    -0.03000
C1063       C  0.75698448  0.91777844  0.53924611    -0.09600
C1064       C  0.74864732  0.93528479  0.52251642     0.06600
C1065       C  0.73733290  0.95395730  0.53692595    -0.03400
C1066       C  0.73672195  0.95410421  0.56494024    -0.07800
C1067       C  0.74622669  0.93604757  0.58029838     0.05700
C1068       C  0.74976648  0.91552599  0.56535031    -0.02800
Br1069     Br  0.72519013  0.89201956  0.56632218    -0.02500
H1070       H  0.76753485  0.90412395  0.53227952     0.09600
H1071       H  0.72712565  0.96784523  0.57416382     0.07600
Br1072     Br  0.71945754  0.97896014  0.02273716    -0.03000
C1073       C  0.79181803  0.95517640  0.98479996    -0.09600
C1074       C  0.76693320  0.95472736  0.98236311     0.06600
C1075       C  0.75747012  0.97768981  0.97934517    -0.03400
C1076       C  0.76985307  0.99759605  0.98950308    -0.07800
C1077       C  0.79369504  0.99635802  0.99588361     0.05700
C1078       C  0.80497541  0.97600371  0.98778321    -0.02800
Br1079     Br  0.83841910  0.97585042  0.48303326    -0.02500
H1080       H  0.80204860  0.93998019  0.98559834     0.09600
H1081       H  0.76082749  0.01394347  0.99243895     0.07600
Br1082     Br  0.73005885  0.98457275  0.95868899    -0.03000
C1083       C  0.82676653  0.92696486  0.52723611    -0.09600
C1084       C  0.84395038  0.91473532  0.54035876     0.06600
C1085       C  0.86147790  0.92857875  0.55382833    -0.03400
C1086       C  0.85917838  0.95354029  0.55473581    -0.07800
C1087       C  0.83759619  0.96332755  0.54671622     0.05700
C1088       C  0.82029186  0.94768735  0.53878079    -0.02800
Br1089     Br  0.79970261  0.94236893  0.56719168    -0.02500
H1090       H  0.81312420  0.91745645  0.51694299     0.09600
H1091       H  0.87271417  0.96451918  0.56377933     0.07600
Br1092     Br  0.88657805  0.91471375  0.57280360    -0.03000
C1093       C  0.80592610  0.90091824  0.61015191    -0.09600
C1094       C  0.79612107  0.88098327  0.59783835     0.06600
C1095       C  0.77236734  0.87573900  0.60341370    -0.03400
C1096       C  0.75811278  0.89308008  0.61561188    -0.07800
C1097       C  0.76706419  0.91617717  0.61976135     0.05700
C1098       C  0.79167402  0.91650175  0.62439267    -0.02800
Br1099     Br  0.80301060  0.92035860  0.66020680    -0.02500
H1100       H  0.82480916  0.90360053  0.61006389     0.09600
H1101       H  0.73950870  0.88960338  0.61780873     0.07600
Br1102     Br  0.75875382  0.84629803  0.59235442    -0.03000
C1103       C  0.76590078  0.86841202  0.50486582    -0.09600
C1104       C  0.79034963  0.87114748  0.50334148     0.06600
C1105       C  0.79894972  0.88617339  0.98346393    -0.03400
C1106       C  0.78414250  0.90330154  0.97296164    -0.07800
C1107       C  0.76172973  0.90689766  0.98416301     0.05700
C1108       C  0.75123833  0.88542655  0.99365937    -0.02800
Br1109     Br  0.71825280  0.87937694  0.49736609    -0.02500
H1110       H  0.75831338  0.85514557  0.51755757     0.09600
H1111       H  0.79102372  0.91476608  0.95788865     0.07600
Br1112     Br  0.83124542  0.88583346  0.97286362    -0.03000
C1113       C  0.86705222  0.82169781  0.57426562    -0.09600
C1114       C  0.85604641  0.82747152  0.55021688     0.06600
C1115       C  0.86626326  0.81868863  0.52640423    -0.03400
C1116       C  0.88444618  0.80272101  0.52734410    -0.07800
C1117       C  0.89475858  0.79607573  0.55137871     0.05700
C1118       C  0.88653025  0.80706731  0.57497810    -0.02800
Br1119     Br  0.90291990  0.80628903  0.60834298    -0.02500
H1120       H  0.86201161  0.83023026  0.59264248     0.09600
H1121       H  0.89201405  0.79754235  0.50855874     0.07600
Br1122     Br  0.86005703  0.83008311  0.49137302    -0.03000
C1123       C  0.98779747  0.64825388  0.60749259    -0.09600
C1124       C  0.00686156  0.66379329  0.61317331     0.06600
C1125       C  0.02085134  0.65816887  0.63582157    -0.03400
C1126       C  0.01706274  0.63689823  0.64906444    -0.07800
C1127       C  0.99900755  0.62130493  0.64153086     0.05700
C1128       C  0.98407715  0.62735292  0.62088182    -0.02800
Br1129     Br  0.95855638  0.60717746  0.60957029    -0.02500
H1130       H  0.97611954  0.65130998  0.59131098     0.09600
H1131       H  0.02788366  0.63278775  0.66599435     0.07600
Br1132     Br  0.04356775  0.67847649  0.65315297    -0.03000
C1133       C  0.96562521  0.69540285  0.58259073    -0.09600
C1134       C  0.98492928  0.70020098  0.60019082     0.06600
C1135       C  0.98068633  0.71889931  0.61834048    -0.03400
C1136       C  0.96563019  0.73721858  0.61081798    -0.07800
C1137       C  0.95024749  0.73408697  0.58909057     0.05700
C1138       C  0.94762533  0.71138332  0.57901343    -0.02800
Br1139     Br  0.91828222  0.70105415  0.56407489    -0.02500
H1140       H  0.96494010  0.68011050  0.56980252     0.09600
H1141       H  0.96568347  0.75351475  0.62205302     0.07600
Br1142     Br  0.98944980  0.71690725  0.65509733    -0.03000
C1143       C  0.98423203  0.64541671  0.92758927    -0.09600
C1144       C  0.99795110  0.62625184  0.93427409     0.06600
C1145       C  0.01787478  0.63061875  0.95023060    -0.03400
C1146       C  0.02170233  0.65288356  0.96174066    -0.07800
C1147       C  0.00574759  0.67139330  0.95863203     0.05700
C1148       C  0.98846454  0.66780820  0.93836068    -0.02800
Br1149     Br  0.97121333  0.69187546  0.92108803    -0.02500
H1150       H  0.96978653  0.64312131  0.91381500     0.09600
H1151       H  0.03652858  0.65477982  0.97474904     0.07600
Br1152     Br  0.04110659  0.60742398  0.95648095    -0.03000
C1153       C  0.00829907  0.66482459  0.51976980    -0.09600
C1154       C  0.00839601  0.68727279  0.50789844     0.06600
C1155       C  0.00991174  0.70614881  0.52571197    -0.03400
C1156       C  0.01082043  0.70379527  0.55235698    -0.07800
C1157       C  0.01031708  0.68246296  0.56513961     0.05700
C1158       C  0.00988357  0.66210619  0.54788583    -0.02800
Br1159     Br  0.01327688  0.63024107  0.55860102    -0.02500
H1160       H  0.00658885  0.64913244  0.00778136     0.09600
H1161       H  0.01117420  0.71964142  0.56395666     0.07600
Br1162     Br  0.01012027  0.73699950  0.51577676    -0.03000
C1163       C  0.98096444  0.73151222  0.96753847    -0.09600
C1164       C  0.98318470  0.70805850  0.97646881     0.06600
C1165       C  0.96298153  0.69991130  0.49077553    -0.03400
C1166       C  0.94817735  0.71591114  0.50388922    -0.07800
C1167       C  0.95112292  0.74011563  0.50128272     0.05700
C1168       C  0.96533191  0.74743105  0.47992867    -0.02800
Br1169     Br  0.96499261  0.77914795  0.46818533    -0.02500
H1170       H  0.99249428  0.73870239  0.95313270     0.09600
H1171       H  0.93459065  0.70932516  0.51652239     0.07600
Br1172     Br  0.95555378  0.66732287  0.49540316    -0.03000
C1173       C  0.22897038  0.98078220  0.62534076    -0.09600
C1174       C  0.24859051  0.98394464  0.60809088     0.06600
C1175       C  0.25343342  0.00818281  0.60485920    -0.03400
C1176       C  0.23403105  0.02358773  0.60272422    -0.07800
C1177       C  0.21102575  0.01434668  0.60504671     0.05700
C1178       C  0.20903713  0.99478059  0.62145498    -0.02800
Br1179     Br  0.17937413  0.98604983  0.63648218    -0.02500
H1180       H  0.22677155  0.96491335  0.63657531     0.09600
H1181       H  0.23687417  0.04090776  0.59480703     0.07600
Br1182     Br  0.28447048  0.02081508  0.60055634    -0.03000
C1183       C  0.27073530  0.98100523  0.51843037    -0.09600
C1184       C  0.27209173  0.95865401  0.50657270     0.06600
C1185       C  0.28327033  0.94278839  0.52298528    -0.03400
C1186       C  0.28101863  0.94560075  0.55092988    -0.07800
C1187       C  0.26873552  0.96465059  0.56330917     0.05700
C1188       C  0.26460403  0.98341675  0.54518435    -0.02800
Br1189     Br  0.24675312  0.01117541  0.54773005    -0.02500
H1190       H  0.26746013  0.99569868  0.50610503     0.09600
H1191       H  0.29105896  0.93419085  0.56288299     0.07600
Br1192     Br  0.31361879  0.93280962  0.51143609    -0.03000
C1193       C  0.22855736  0.99118054  0.97651366    -0.09600
C1194       C  0.23379933  0.96891704  0.98697372     0.06600
C1195       C  0.21919806  0.96173608  0.50815398    -0.03400
C1196       C  0.20048464  0.97437760  0.51674944    -0.07800
C1197       C  0.20028716  0.99830699  0.51314341     0.05700
C1198       C  0.21354334  0.00673713  0.99095859    -0.02800
Br1199     Br  0.21422646  0.03882283  0.98073656    -0.02500
H1200       H  0.23764725  0.99760128  0.95923996     0.09600
H1201       H  0.18920520  0.96606059  0.53097589     0.07600
Br1202     Br  0.22791351  0.93956007  0.53314017    -0.03000
C1203       C  0.13843230  0.95912955  0.57693929    -0.09600
C1204       C  0.14529741  0.97519946  0.55745805     0.06600
C1205       C  0.14415031  0.96741533  0.53070891    -0.03400
C1206       C  0.14476213  0.94332494  0.52486260    -0.07800
C1207       C  0.14267984  0.92685507  0.54512804     0.05700
C1208       C  0.13515558  0.93519216  0.57017094    -0.02800
Br1209     Br  0.12024588  0.91461406  0.59498871    -0.02500
H1210       H  0.13630119  0.96495555  0.59734833     0.09600
H1211       H  0.14822318  0.93754955  0.50474217     0.07600
Br1212     Br  0.14284086  0.98871612  0.00172220    -0.03000
C1213       C  0.22048061  0.94232726  0.59289542    -0.09600
C1214       C  0.24508888  0.93932418  0.59402786     0.06600
C1215       C  0.25182675  0.91514378  0.59033259    -0.03400
C1216       C  0.23495044  0.89800378  0.58107410    -0.07800
C1217       C  0.21073413  0.90279937  0.58139205     0.05700
C1218       C  0.20453325  0.92392908  0.59256452    -0.02800
Br1219     Br  0.17617443  0.92704340  0.61171030    -0.02500
H1220       H  0.21273933  0.95890541  0.58989062     0.09600
H1221       H  0.24072289  0.88111384  0.57387361     0.07600
Br1222     Br  0.28220899  0.90293104  0.59838066    -0.03000
C1223       C  0.23165124  0.89282706  0.50156630    -0.09600
C1224       C  0.20803469  0.89743769  0.49583666     0.06600
C1225       C  0.20368591  0.91240659  0.97463003    -0.03400
C1226       C  0.22209095  0.92634390  0.96422242    -0.07800
C1227       C  0.24453440  0.92760786  0.97682956     0.05700
C1228       C  0.24997283  0.90709478  0.99124546    -0.02800
Br1229     Br  0.27947598  0.89209500  0.98800720    -0.02500
H1230       H  0.23583066  0.87888765  0.51499628     0.09600
H1231       H  0.21758616  0.93943689  0.94986316     0.07600
Br1232     Br  0.17265030  0.91566652  0.96089499    -0.03000
C1233       C  0.02199365  0.81668558  0.56432553    -0.09600
C1234       C  0.03230319  0.79627197  0.55219522     0.06600
C1235       C  0.01612433  0.78006115  0.54482784    -0.03400
C1236       C  0.99750692  0.78869191  0.53094168    -0.07800
C1237       C  0.98332696  0.80183409  0.54685413     0.05700
C1238       C  0.99625380  0.81792603  0.56417625    -0.02800
Br1239     Br  0.98042071  0.83768891  0.58902705    -0.02500
H1240       H  0.03265799  0.82909283  0.57565234     0.09600
H1241       H  0.98991517  0.77831526  0.51513411     0.07600
Br1242     Br  0.00842517  0.76412152  0.57756180    -0.03000
C1243       C  0.07245816  0.71010846  0.58149928    -0.09600
C1244       C  0.07033217  0.73411227  0.58675412     0.06600
C1245       C  0.05322391  0.74033335  0.60538823    -0.03400
C1246       C  0.03460148  0.72466236  0.61141254    -0.07800
C1247       C  0.03337624  0.70126182  0.60127098     0.05700
C1248       C  0.05505960  0.69370597  0.58964581    -0.02800
Br1249     Br  0.06166774  0.66154644  0.58225133    -0.02500
H1250       H  0.08735864  0.70405925  0.57035185     0.09600
H1251       H  0.02098021  0.73234070  0.62265780     0.07600
Br1252     Br  0.05390533  0.77105164  0.62143785    -0.03000
C1253       C  0.04986328  0.74688320  0.47497379    -0.09600
C1254       C  0.06421740  0.74057542  0.49655748     0.06600
C1255       C  0.06786439  0.71657694  0.49928443    -0.03400
C1256       C  0.05205606  0.70010399  0.98792359    -0.07800
C1257       C  0.03226443  0.70697275  0.97262520     0.05700
C1258       C  0.03550076  0.72961950  0.46155011    -0.02800
Br1259     Br  0.02954826  0.73398646  0.42444450    -0.02500
H1260       H  0.04963437  0.76489411  0.46870176     0.09600
H1261       H  0.05358099  0.68252910  0.99495098     0.07600
Br1262     Br  0.09482647  0.70569089  0.01751857    -0.03000
C1263       C  0.12393220  0.81469965  0.56739668    -0.09600
C1264       C  0.12156598  0.79971861  0.54505581     0.06600
C1265       C  0.13901746  0.80191437  0.52495822    -0.03400
C1266       C  0.15420434  0.82156420  0.52491585    -0.07800
C1267       C  0.15368699  0.83877153  0.54526237     0.05700
C1268       C  0.13954784  0.83385082  0.56775018    -0.02800
Br1269     Br  0.13902448  0.85339566  0.59914333    -0.02500
H1270       H  0.11225637  0.81243675  0.58420693     0.09600
H1271       H  0.16634518  0.82297228  0.50860016     0.07600
Br1272     Br  0.14667300  0.77799641  0.49930864    -0.03000
C1273       C  0.70303548  0.92726454  0.93644450    -0.09600
C1274       C  0.68225964  0.92717401  0.95143845     0.06600
C1275       C  0.68383117  0.92934112  0.97916798    -0.03400
C1276       C  0.70574443  0.93156037  0.99132904    -0.07800
C1277       C  0.72704330  0.93210130  0.97670508     0.05700
C1278       C  0.72514073  0.92968319  0.94858310    -0.02800
Br1279     Br  0.75177097  0.93009210  0.92511219    -0.02500
H1280       H  0.70207217  0.92538491  0.91502591     0.09600
H1281       H  0.70561048  0.93081345  0.01266995     0.07600
Br1282     Br  0.65704765  0.92612928  0.50217145    -0.03000
C1283       C  0.70573447  0.93618921  0.66913906    -0.09600
C1284       C  0.68479329  0.93105857  0.65551670     0.06600
C1285       C  0.68535038  0.92889604  0.62774707    -0.03400
C1286       C  0.70647466  0.93171011  0.61420092    -0.07800
C1287       C  0.72806427  0.93655655  0.62738795     0.05700
C1288       C  0.72705819  0.93933905  0.65549730    -0.02800
Br1289     Br  0.75328531  0.94926119  0.67681781    -0.02500
H1290       H  0.70541728  0.93818054  0.69057439     0.09600
H1291       H  0.70527430  0.92995589  0.59297405     0.07600
Br1292     Br  0.65826291  0.92023471  0.60680168    -0.03000
C1293       C  0.30581019  0.94735547  0.92969901    -0.09600
C1294       C  0.31747802  0.96878784  0.93394000     0.06600
C1295       C  0.30526308  0.98697306  0.94639654    -0.03400
C1296       C  0.28288875  0.98278550  0.95682342    -0.07800
C1297       C  0.27224588  0.96016347  0.95688020     0.05700
C1298       C  0.28308128  0.94323781  0.93978046    -0.02800
Br1299     Br  0.26726347  0.91641290  0.92414549    -0.02500
H1300       H  0.31411401  0.93400614  0.91761104     0.09600
H1301       H  0.27501453  0.99745147  0.46648254     0.07600
Br1302     Br  0.31923065  0.01745999  0.45233696    -0.03000
C1303       C  0.32684120  0.95992095  0.62066955    -0.09600
C1304       C  0.32311245  0.95188986  0.64628412     0.06600
C1305       C  0.30005298  0.94715571  0.65472172    -0.03400
C1306       C  0.28113932  0.95049003  0.63737453    -0.07800
C1307       C  0.28442244  0.95881533  0.61122658     0.05700
C1308       C  0.30826874  0.96421970  0.60344455    -0.02800
Br1309     Br  0.31935665  0.97992377  0.57196995    -0.02500
H1310       H  0.34461505  0.96433008  0.61453309     0.09600
H1311       H  0.26362641  0.94636993  0.64442756     0.07600
Br1312     Br  0.29371474  0.93552664  0.68955336    -0.03000
loop_ 
_geom_bond_atom_site_label_1 
_geom_bond_atom_site_label_2 
_geom_bond_distance 
_geom_bond_site_symmetry_2 
_ccdc_geom_bond_type 
N1            N2   1.323       .  A
N1            C5   1.348       .  A
N1           Cu9   2.092       .  S
N2            C3   1.343       .  A
N2           Cu8   2.066       .  S
C3            C4   1.379       .  A
C3            H6   1.082       .  S
C4            C5   1.386       .  A
C4           C52   1.468       .  S
C5            H7   1.082       .  S
Cu8          N11   2.067   1_565  S
Cu9          N19   2.092       .  S
Cu10         N12   2.069   1_565  S
Cu10         N18   2.071       .  S
N11          N12   1.321       .  A
N11          C15   1.346       .  A
N12          C13   1.342       .  A
C13          C14   1.384       .  A
C13          H16   1.081       .  S
C14          C15   1.385       .  A
C14          C38   1.473       .  S
C15          H17   1.082       .  S
N18          N19   1.322       .  A
N18          C22   1.345       .  A
N19          C20   1.347       .  A
C20          C21   1.389       .  A
C20          H23   1.082       .  S
C21          C22   1.383       .  A
C21         C648   1.478       .  S
C22          H24   1.082       .  S
N25          N26   1.325       .  A
N25          C29   1.350       .  A
N25         Cu33   2.108       .  S
N26          C27   1.345       .  A
N26         Cu32   2.070   1_565  S
C27          C28   1.379       .  A
C27          H30   1.082       .  S
C28          C29   1.388       .  A
C28          C76   1.473       .  S
C29          H31   1.082       .  S
Cu32         N35   2.070       .  S
Cu33         N43   2.107       .  S
Cu34         N36   2.054       .  S
Cu34         N42   2.056   1_545  S
N35          N36   1.319       .  A
N35          C39   1.346       .  A
N36          C37   1.341       .  A
C37          C38   1.382       .  A
C37          H40   1.082       .  S
C38          C39   1.387       .  A
C39          H41   1.082       .  S
N42          N43   1.323       .  A
N42          C46   1.341       .  A
N43          C44   1.352       .  A
C44          C45   1.391       .  A
C44          H47   1.082       .  S
C45          C46   1.378       .  A
C45         C638   1.479       .  S
C46          H48   1.082   1_565  S
N49          N50   1.323       .  A
N49          C53   1.345       .  A
N49         Cu57   2.083       .  S
N50          C51   1.345       .  A
N50         Cu56   2.072       .  S
C51          C52   1.382       .  A
C51          H54   1.082       .  S
C52          C53   1.384       .  A
C53          H55   1.082       .  S
Cu56         N59   2.073       .  S
Cu57         N67   2.082       .  S
Cu58         N60   2.063       .  S
Cu58         N66   2.063       .  S
N59          N60   1.321       .  A
N59          C63   1.346       .  A
N60          C61   1.341       .  A
C61          C62   1.382       .  A
C61          H64   1.082       .  S
C62          C63   1.385       .  A
C62          C86   1.472       .  S
C63          H65   1.082       .  S
N66          N67   1.321       .  A
N66          C70   1.345       .  A
N67          C68   1.344       .  A
C68          C69   1.386       .  A
C68          H71   1.082       .  S
C69          C70   1.382       .  A
C69         C628   1.477       .  S
C70          H72   1.082       .  S
N73          N74   1.324       .  A
N73          C77   1.349       .  A
N73         Cu81   2.098       .  S
N74          C75   1.345       .  A
N74         Cu80   2.072       .  S
C75          C76   1.380       .  A
C75          H78   1.082       .  S
C76          C77   1.387       .  A
C77          H79   1.082       .  S
Cu80         N83   2.071       .  S
Cu81         N91   2.097       .  S
Cu82         N84   2.060       .  S
Cu82         N90   2.062       .  S
N83          N84   1.320       .  A
N83          C87   1.346       .  A
N84          C85   1.342       .  A
C85          C86   1.383       .  A
C85          H88   1.082       .  S
C86          C87   1.385       .  A
C87          H89   1.082       .  S
N90          N91   1.323       .  A
N90          C94   1.344       .  A
N91          C92   1.348       .  A
C92          C93   1.389       .  A
C92          H95   1.082       .  S
C93          C94   1.380       .  A
C93         C618   1.481       .  S
C94          H96   1.082       .  S
C97          C98   1.559       .  S
C97         C103   1.567       .  S
C97         C101   1.565       .  S
C97         C608   1.547       .  S
C98         H105   1.086       .  S
C98          C99   1.355       .  D
C99         C100   1.573       .  S
C99         C578   1.510       .  S
C100        C104   1.541       .  S
C100        C102   1.524       .  S
C100        H106   1.092       .  S
C101        H107   1.085       .  S
C101        C102   1.370       .  D
C102        C588   1.515       .  S
C103        H108   1.074   1_554  S
C103        C104   1.363       .  D
C104        C598   1.523   1_554  S
C109        C110   1.564       .  S
C109        C115   1.555       .  S
C109        C113   1.558       .  S
C109        C611   1.542       .  S
C110        H117   1.081       .  S
C110        C111   1.367       .  D
C111        C112   1.541       .  S
C111        C568   1.505   1_554  S
C112        C116   1.527       .  S
C112        C114   1.547       .  S
C112        H118   1.084       .  S
C113        H119   1.085       .  S
C113        C114   1.368       .  D
C114        C561   1.503       .  S
C115        H120   1.086       .  S
C115        C116   1.355       .  D
C116        C551   1.506       .  S
C121        C538   1.595       .  S
C121        C571   1.608       .  S
C121        C641   1.572       .  S
C121       C1184   1.600       .  S
C122        C518   1.619       .  S
C122        C531   1.600       .  S
C122        C558   1.614       .  S
C122        C651   1.563       .  S
C123        C491   1.570       .  S
C123        C508   1.619   1_455  S
C123        C601   1.621       .  S
C123       C1154   1.586       .  S
C124        C468   1.565       .  S
C124        C478   1.612   1_455  S
C124        C501   1.584       .  S
C124        C591   1.620       .  S
C125        C126   1.565       .  S
C125        C131   1.552       .  S
C125        C129   1.559       .  S
C125        C458   1.534       .  S
C126        H133   1.084       .  S
C126        C127   1.367       .  D
C127        C128   1.521       .  S
C127        C438   1.498       .  S
C128        C132   1.544       .  S
C128        C130   1.537       .  S
C128        H134   1.085       .  S
C129        H135   1.083       .  S
C129        C130   1.362       .  D
C130        C448   1.506       .  S
C131        H136   1.085       .  S
C131        C132   1.359       .  D
C132        C428   1.501       .  S
C137        C138   1.571       .  S
C137        C143   1.548       .  S
C137        C141   1.556       .  S
C137        C461   1.533       .  S
C138        H145   1.083       .  S
C138        C139   1.362       .  D
C139        C140   1.538       .  S
C139        C511   1.524       .  S
C140        C144   1.576       .  S
C140        C142   1.536       .  S
C140        H146   1.093       .  S
C141        H147   1.085       .  S
C141        C142   1.366       .  D
C142        C481   1.503       .  S
C143        H148   1.086       .  S
C143        C144   1.354       .  D
C144        C581   1.514       .  S
C149        C418   1.606       .  S
C149        C451   1.618       .  S
C149        C621   1.556       .  S
C149       C1064   1.601       .  S
C150        C401   1.609       .  S
C150        C411   1.601       .  S
C150        C441   1.618       .  S
C150        C631   1.557       .  S
C151        C152   1.555       .  S
C151        C157   1.542       .  S
C151        C155   1.565       .  S
C151        C391   1.541       .  S
C152        H159   1.086       .  S
C152        C153   1.369       .  D
C153        C154   1.524       .  S
C153        C378   1.483       .  S
C154        C158   1.522       .  S
C154        C156   1.546       .  S
C154        H160   1.111       .  S
C155        H161   1.082       .  S
C155        C156   1.372       .  D
C156        C368   1.500       .  S
C157        H162   1.087       .  S
C157        C158   1.353       .  D
C158        C358   1.479       .  S
C163        C164   1.556       .  S
C163        C169   1.548       .  S
C163        C167   1.562       .  S
C163        C388   1.547       .  S
C164        H171   1.084       .  S
C164        C165   1.365       .  D
C165        C166   1.551       .  S
C165        C521   1.523       .  S
C166        C170   1.542   1_545  S
C166        C168   1.564       .  S
C166        H172   1.100   1_545  S
C167        H829   1.076       .  S
C167        C168   1.369       .  D
C168        C541   1.525   1_545  S
C169        H174   1.087       .  S
C169        C170   1.359   1_545  D
C170        C548   1.505       .  S
H173        C823   1.076       .  S
C175        C176   1.558       .  S
C175        C181   1.552       .  S
C175        C179   1.562       .  S
C175        C348   1.542       .  S
C176        H183   1.086       .  S
C176        C177   1.363   1_545  D
C177        C178   1.557       .  S
C177        C431   1.501       .  S
C178        C182   1.525   1_565  S
C178        C180   1.523   1_565  S
C178        H184   1.102       .  S
C179        H841   1.078       .  S
C179        C180   1.367       .  D
C180       C1077   1.498   1_544  S
C181        H186   1.086       .  S
C181        C182   1.361       .  D
C182        C398   1.494       .  S
H185        C835   1.078       .  S
C187        C188   1.551       .  S
C187        C193   1.545       .  S
C187        C191   1.565       .  S
C187        C351   1.536       .  S
C188        H195   1.086       .  S
C188        C189   1.367       .  D
C189        C190   1.539       .  S
C189        C331   1.502       .  S
C190        C194   1.522       .  S
C190        C192   1.546       .  S
C190        H196   1.091       .  S
C191        H197   1.081       .  S
C191        C192   1.372       .  D
C192        C341   1.508       .  S
C193        H198   1.086       .  S
C193        C194   1.352       .  D
C194        C361   1.480       .  S
C199        C311   1.566       .  S
C199        C338   1.617       .  S
C199        C381   1.598   1_655  S
C199        C977   1.619       .  S
C200        C301   1.563       .  S
C200        C318   1.592       .  S
C200        C328   1.601       .  S
C200        C371   1.603   1_655  S
N201        N202   1.323       .  A
N201        C205   1.349       .  A
N201       Cu209   2.093       .  S
N202        C203   1.344       .  A
N202       Cu208   2.070       .  S
C203        C204   1.381       .  A
C203        H206   1.082       .  S
C204        C205   1.387       .  A
C204        C252   1.470       .  S
C205        H207   1.082   1_455  S
Cu208       N211   2.069       .  S
Cu209       N219   2.093       .  S
Cu210       N212   2.065       .  S
Cu210       N218   2.068       .  S
N211        N212   1.320       .  A
N211        C215   1.345       .  A
N212        C213   1.342       .  A
C213        C214   1.385       .  A
C213        H216   1.082       .  S
C214        C215   1.385       .  A
C214        C238   1.473       .  S
C215        H217   1.082       .  S
N218        N219   1.322       .  A
N218        C222   1.344       .  A
N219        C220   1.347       .  A
C220        C221   1.390       .  A
C220        H223   1.082       .  S
C221        C222   1.384       .  A
C221        C298   1.487       .  S
C222        H224   1.080       .  S
N225        N226   1.325   1_655  A
N225        C229   1.351       .  A
N225       Cu233   2.104       .  S
N226        C227   1.343       .  A
N226       Cu232   2.070       .  S
C227        C228   1.378   1_455  A
C227        H230   1.082       .  S
C228        C229   1.388       .  A
C228        C276   1.471       .  S
C229        H887   1.082       .  S
H231        C885   1.082       .  S
Cu232       N235   2.070       .  S
Cu233       N243   2.103       .  S
Cu234       N236   2.061       .  S
Cu234       N242   2.062       .  S
N235        N236   1.319       .  A
N235        C239   1.346       .  A
N236        C237   1.341       .  A
C237        C238   1.383       .  A
C237        H240   1.081       .  S
C238        C239   1.387       .  A
C239        H241   1.082       .  S
N242        N243   1.322   1_455  A
N242        C246   1.343       .  A
N243        C244   1.350       .  A
C244        C245   1.390       .  A
C244        H903   1.082       .  S
C245        C246   1.380   1_655  A
C245        C308   1.475       .  S
C246        H248   1.082       .  S
H247        C900   1.082       .  S
N249        N250   1.324       .  A
N249        C253   1.350   1_655  A
N249       Cu257   2.100       .  S
N250        C251   1.344       .  A
N250       Cu256   2.068       .  S
C251        C252   1.379   1_655  A
C251        H254   1.082       .  S
C252        C253   1.387       .  A
C253        H255   1.082       .  S
Cu256       N259   2.069       .  S
Cu257       N267   2.099       .  S
Cu258       N260   2.069       .  S
Cu258       N266   2.071       .  S
N259        N260   1.321       .  A
N259        C263   1.346       .  A
N260        C261   1.341       .  A
C261        C262   1.384       .  A
C261        H264   1.082       .  S
C262        C263   1.385       .  A
C262        C286   1.472       .  S
C263        H265   1.082       .  S
N266        N267   1.323       .  A
N266        C270   1.345       .  A
N267        C268   1.350   1_655  A
C268        C269   1.387   1_455  A
C268        H271   1.082       .  S
C269        C270   1.381       .  A
C269        C471   1.477       .  S
C270        H272   1.082       .  S
N273        N274   1.325       .  A
N273        C277   1.348       .  A
N273       Cu281   2.103       .  S
N274        C275   1.345       .  A
N274       Cu280   2.074       .  S
C275        C276   1.380       .  A
C275        H278   1.082       .  S
C276        C277   1.387       .  A
C277        H279   1.082       .  S
Cu280       N283   2.074       .  S
Cu281       N291   2.101       .  S
Cu282       N284   2.058       .  S
Cu282       N290   2.060       .  S
N283        N284   1.320       .  A
N283        C287   1.348       .  A
N284        C285   1.340       .  A
C285        C286   1.382       .  A
C285        H288   1.082       .  S
C286        C287   1.388       .  A
C287        H289   1.082       .  S
N290        N291   1.320       .  A
N290        C294   1.340       .  A
N291        C292   1.351       .  A
C292        C293   1.397       .  A
C292        H295   1.081   1_655  S
C293        C294   1.386       .  A
C293        C488   1.495       .  S
C294        H296   1.081       .  S
C297        C298   1.400   1_655  A
C297        C302   1.399       .  A
C297        H304   1.084       .  S
C298        C299   1.412       .  A
C299        C300   1.402       .  A
C299       Br306   1.919       .  S
C300        C301   1.408   1_455  A
C300        H305   1.076       .  S
C301        C302   1.421       .  A
C302       Br303   1.914       .  S
C307        C308   1.400       .  A
C307        C312   1.412       .  A
C307        H314   1.084       .  S
C308        C309   1.395   1_655  A
C309        C310   1.388       .  A
C309       Br316   1.922       .  S
C310        C311   1.409   1_455  A
C310        H315   1.068       .  S
C311        C312   1.436       .  A
C312       Br313   1.921       .  S
C317        C318   1.408   1_455  A
C317        C322   1.404       .  A
C317        H324   1.081       .  S
C318        C319   1.428       .  A
C319        C320   1.417       .  A
C319       Br326   1.921       .  S
C320        C321   1.415       .  A
C320        H325   1.074       .  S
C321        C322   1.425   1_655  A
C321        C855   1.619       .  S
C322       Br323   1.925       .  S
C327        C328   1.416       .  A
C327        C332   1.405       .  A
C327        H334   1.061       .  S
C328        C329   1.431       .  A
C329        C330   1.414       .  A
C329       Br336   1.920       .  S
C330        C331   1.403       .  A
C330        H335   1.080       .  S
C331        C332   1.404       .  A
C332       Br333   1.913       .  S
C337        C342   1.416       .  A
C337        C994   1.421       .  A
C337        H344   1.078       .  S
C338        C339   1.432       .  A
C338        C993   1.421       .  A
C339        C996   1.403       .  A
C339       Br346   1.920       .  S
C340        C341   1.400       .  A
C340        C995   1.403   1_554  A
C340        H345   1.078       .  S
C341        C342   1.415       .  A
C342       Br343   1.912       .  S
C347        C348   1.409       .  A
C347        C352   1.394       .  A
C347        H354   1.084       .  S
C348        C349   1.423       .  A
C349        C350   1.406       .  A
C349       Br356   1.920       .  S
C350        C351   1.408       .  A
C350        H355   1.077       .  S
C351        C352   1.417       .  A
C352       Br353   1.926       .  S
C357        C358   1.403       .  A
C357        C362   1.400   1_455  A
C357        H364   1.084       .  S
C358        C359   1.405       .  A
C359        C360   1.402   1_455  A
C359       Br366   1.915   1_554  S
C360        C361   1.404       .  A
C360        H365   1.084       .  S
C361        C362   1.406       .  A
C362       Br363   1.915       .  S
C367        C368   1.389       .  A
C367        C372   1.375       .  A
C367        H374   1.079       .  S
C368        C369   1.421       .  A
C369        C370   1.422       .  A
C369       Br376   1.918       .  S
C370        C371   1.429       .  A
C370        H375   1.078       .  S
C371        C372   1.397       .  A
C372       Br373   1.860   1_455  S
C377        C378   1.390       .  A
C377        C382   1.389       .  A
C377        H384   1.078       .  S
C378        C379   1.404   1_554  A
C379       C1036   1.419       .  A
C379       Br386   1.916       .  S
C380        C381   1.415       .  A
C380       C1035   1.419       .  A
C380        H385   1.081       .  S
C381       C1038   1.426       .  A
C382       C1037   1.426       .  A
C382      Br1039   1.924       .  S
Br383      C1038   1.924       .  S
C387        C388   1.412       .  A
C387        C392   1.401       .  A
C387        H394   1.077       .  S
C388        C389   1.422       .  A
C389        C390   1.404       .  A
C389       Br396   1.924       .  S
C390        C391   1.410       .  A
C390        H395   1.079       .  S
C391        C392   1.420       .  A
C392      Br1049   1.926   1_554  S
Br393      C1048   1.926       .  S
C397        C398   1.401       .  A
C397        C402   1.414   1_545  A
C397        H404   1.083       .  S
C398        C399   1.402   1_545  A
C399        C400   1.403       .  A
C399       Br406   1.919       .  S
C400        C401   1.417       .  A
C400        H405   1.052       .  S
C401        C402   1.432       .  A
C402       Br403   1.928       .  S
C407        C408   1.408       .  A
C407        C412   1.384       .  A
C407        H414   1.049       .  S
C408        C409   1.442       .  A
C408        C805   1.601   1_554  S
C409        C410   1.411       .  A
C409      Br1072   1.917       .  S
C410        C411   1.415       .  A
C410        H415   1.065       .  S
C411        C412   1.401       .  A
C412       Br413   1.924       .  S
Br416      C1065   1.917       .  S
C417        C418   1.422       .  A
C417        C422   1.402       .  A
C417        H424   1.056       .  S
C418        C419   1.438       .  A
C419        C420   1.417       .  A
C419       Br426   1.927       .  S
C420        C421   1.399       .  A
C420        H425   1.083   1_565  S
C421        C422   1.395       .  A
C421        C836   1.498   1_565  S
C422      Br1079   1.920       .  S
Br423      C1078   1.920       .  S
C427        C428   1.387       .  A
C427        C432   1.368       .  A
C427        H434   1.070       .  S
C428        C429   1.428       .  A
C429        C430   1.436       .  A
C429       Br436   1.911       .  S
C430        C431   1.421       .  A
C430        H435   1.082       .  S
C431        C432   1.374       .  A
C432       Br433   1.874       .  S
C437        C438   1.397       .  A
C437        C442   1.404       .  A
C437        H444   1.084       .  S
C438        C439   1.409       .  A
C439        C440   1.424       .  A
C439       Br446   1.916       .  S
C440        C441   1.420       .  A
C440        H445   1.080       .  S
C441        C442   1.421       .  A
C442       Br443   1.924       .  S
C447        C448   1.401       .  A
C447       C1108   1.418   1_554  A
C447        H454   1.083       .  S
C448       C1105   1.410   1_554  A
C449        C450   1.413       .  A
C449       C1104   1.410       .  A
C449       Br456   1.915       .  S
C450        C451   1.412       .  A
C450        H455   1.079       .  S
C451        C452   1.444       .  A
C452       C1103   1.418       .  A
C452      Br1109   1.913       .  S
Br453      C1108   1.913       .  S
C457        C458   1.411       .  A
C457        C462   1.402       .  A
C457        H464   1.080       .  S
C458        C459   1.421       .  A
C459        C460   1.394       .  A
C459       Br466   1.925   1_554  S
C460        C461   1.406       .  A
C460        H465   1.078       .  S
C461        C462   1.418       .  A
C462       Br463   1.924       .  S
C467        C468   1.417   1_655  A
C467        C472   1.394       .  A
C467        H474   1.071       .  S
C468        C469   1.436       .  A
C469        C470   1.409       .  A
C469       Br476   1.924       .  S
C470        C471   1.398   1_455  A
C470        H475   1.084       .  S
C471        C472   1.396       .  A
C472       Br473   1.921       .  S
C477        C478   1.433       .  A
C477        C482   1.399       .  A
C477        H484   1.078       .  S
C478        C479   1.419       .  A
C479        C480   1.422       .  A
C479       Br486   1.923       .  S
C480        C481   1.410       .  A
C480        H485   1.082       .  S
C481        C482   1.392       .  A
C482       Br483   1.913       .  S
C487        C488   1.403       .  A
C487        C492   1.400       .  A
C487        H494   1.082       .  S
C488        C489   1.408   1_655  A
C489        C490   1.404       .  A
C489       Br496   1.920       .  S
C490        C491   1.418       .  A
C490        H495   1.072       .  S
C491        C492   1.429   1_455  A
C492       Br493   1.924       .  S
C497        C498   1.424       .  A
C497        C502   1.430       .  A
C497       H1160   1.076       .  S
C498        C499   1.394       .  A
C498        C779   1.586   1_554  S
C499        C500   1.352       .  A
C499       Br506   1.841       .  S
C500        C501   1.388       .  A
C500        H505   1.070       .  S
C501        C502   1.441       .  A
C502       Br503   1.922       .  S
H504       C1153   1.076       .  S
C507        C508   1.429       .  A
C507       C1168   1.422       .  A
C507        H514   1.061       .  S
C508       C1165   1.432       .  A
C509        C510   1.411   1_556  A
C509       C1164   1.432       .  A
C509       Br516   1.921       .  S
C510        C511   1.399       .  A
C510        H515   1.068       .  S
C511        C512   1.409   1_554  A
C512       C1163   1.422       .  A
C512       Br513   1.917       .  S
C517        C518   1.425       .  A
C517        C522   1.416       .  A
C517        H524   1.082       .  S
C518        C519   1.420   1_565  A
C519        C520   1.431       .  A
C519       Br526   1.911       .  S
C520        C521   1.409       .  A
C520        H525   1.083       .  S
C521        C522   1.404   1_545  A
C522       Br523   1.912       .  S
C527        C528   1.405       .  A
C527        C532   1.397       .  A
C527        H534   1.072       .  S
C528        C529   1.399       .  A
C528        C777   1.600   1_554  S
C529        C530   1.420       .  A
C529       Br536   1.917       .  S
C530        C531   1.438       .  A
C530        H535   1.068       .  S
C531        C532   1.442       .  A
C532       Br533   1.903   1_565  S
C537        C538   1.422       .  A
C537        C542   1.434   1_565  A
C537        H544   1.078       .  S
C538       C1195   1.413       .  A
C539        C540   1.365       .  A
C539       C1194   1.413   1_554  A
C539       Br546   1.874       .  S
C540        C541   1.383       .  A
C540        H545   1.073       .  S
C541       C1198   1.432   1_564  A
C542       C1197   1.432   1_545  A
C542       Br543   1.913       .  S
C547        C548   1.405       .  A
C547        C552   1.414       .  A
C547        H554   1.083       .  S
C548        C549   1.413       .  A
C549        C550   1.405       .  A
C549      Br1212   1.918       .  S
C550        C551   1.403       .  A
C550        H555   1.080       .  S
C551        C552   1.410       .  A
C552       Br553   1.917       .  S
Br556      C1205   1.917       .  S
C557        C558   1.416       .  A
C557        C562   1.378       .  A
C557        H564   1.066       .  S
C558        C559   1.451       .  A
C559        C560   1.433       .  A
C559       Br566   1.923       .  S
C560        C561   1.411       .  A
C560        H565   1.083       .  S
C561        C562   1.376       .  A
C562       Br563   1.890       .  S
C567        C568   1.406   1_554  A
C567       C1228   1.417   1_554  A
C567        H574   1.083       .  S
C568       C1225   1.404       .  A
C569        C570   1.411       .  A
C569       C1224   1.404       .  A
C569       Br576   1.912       .  S
C570        C571   1.428       .  A
C570        H575   1.083       .  S
C571        C572   1.428       .  A
C572       C1223   1.417       .  A
C572       Br573   1.906       .  S
C577        C578   1.443       .  A
C577        C582   1.469   1_455  A
C577        H584   1.082       .  S
C578        C579   1.344       .  A
C579        C580   1.374   1_455  A
C579       Br586   1.942       .  S
C580        C581   1.364       .  A
C580        H585   1.072       .  S
C581        C582   1.450       .  A
C582       Br583   1.909       .  S
C587        C588   1.401       .  A
C587        C592   1.417       .  A
C587        H594   1.076       .  S
C588        C589   1.399       .  A
C589        C590   1.412       .  A
C589       Br596   1.922       .  S
C590        C591   1.425       .  A
C590        H595   1.058       .  S
C591        C592   1.437       .  A
C592       Br593   1.914       .  S
C597        C598   1.416       .  A
C597        C602   1.432       .  A
C597        H604   1.082       .  S
C598        C599   1.400       .  A
C599       C1256   1.407       .  A
C599      Br1262   1.909   1_556  S
C600        C601   1.430       .  A
C600       C1255   1.407       .  A
C600        H605   1.076       .  S
C601       C1258   1.427       .  A
C602       C1257   1.427       .  A
C602       Br603   1.920       .  S
Br606      C1255   1.909       .  S
C607        C608   1.408       .  A
C607        C612   1.398       .  A
C607        H614   1.084       .  S
C608        C609   1.423       .  A
C609        C610   1.406       .  A
C609       Br616   1.922   1_554  S
C610        C611   1.410       .  A
C610        H615   1.076       .  S
C611        C612   1.418       .  A
C612       Br613   1.922       .  S
C617        C618   1.403       .  A
C617        C622   1.404       .  A
C617        H624   1.083       .  S
C618        C619   1.403       .  A
C619        C620   1.394       .  A
C619      Br1282   1.921       .  S
C620        C621   1.418       .  A
C620        H625   1.076       .  S
C621        C622   1.425       .  A
C622       Br623   1.922       .  S
Br626      C1275   1.921   1_554  S
C627        C628   1.401       .  A
C627        C632   1.405       .  A
C627        H634   1.084       .  S
C628        C629   1.402       .  A
C629        C630   1.390       .  A
C629       Br636   1.923       .  S
C630        C631   1.419       .  A
C630        H635   1.074       .  S
C631        C632   1.423       .  A
C632       Br633   1.913       .  S
C637        C638   1.397       .  A
C637        C642   1.407       .  A
C637        H644   1.084       .  S
C638        C639   1.401       .  A
C639        C640   1.396       .  A
C639      Br1302   1.922   1_565  S
C640        C641   1.419       .  A
C640       H1301   1.068       .  S
C641        C642   1.433       .  A
C642       Br643   1.923       .  S
H645       C1296   1.068       .  S
Br646      C1295   1.922   1_545  S
C647        C648   1.391       .  A
C647        C652   1.396       .  A
C647        H654   1.085       .  S
C648        C649   1.403       .  A
C649        C650   1.405       .  A
C649       Br656   1.917       .  S
C650        C651   1.418       .  A
C650        H655   1.082       .  S
C651        C652   1.443       .  A
C652       Br653   1.934       .  S
N657        N658   1.323       .  A
N657        C661   1.349       .  A
N657       Cu665   2.092       .  S
N658        C659   1.343       .  A
N658       Cu664   2.066       .  S
C659        C660   1.379       .  A
C659        H662   1.082       .  S
C660        C661   1.386       .  A
C660        C708   1.468       .  S
C661        H663   1.082       .  S
Cu664       N667   2.067   1_565  S
Cu665       N675   2.093       .  S
Cu666       N668   2.069   1_565  S
Cu666       N674   2.071       .  S
N667        N668   1.321       .  A
N667        C671   1.346       .  A
N668        C669   1.342       .  A
C669        C670   1.384       .  A
C669        H672   1.081       .  S
C670        C671   1.385       .  A
C670        C694   1.473       .  S
C671        H673   1.082       .  S
N674        N675   1.322       .  A
N674        C678   1.345       .  A
N675        C676   1.347       .  A
C676        C677   1.389       .  A
C676        H679   1.082       .  S
C677        C678   1.383       .  A
C677       C1304   1.478       .  S
C678        H680   1.082       .  S
N681        N682   1.325       .  A
N681        C685   1.350       .  A
N681       Cu689   2.108       .  S
N682        C683   1.345       .  A
N682       Cu688   2.070   1_565  S
C683        C684   1.379       .  A
C683        H686   1.082       .  S
C684        C685   1.388       .  A
C684        C732   1.473       .  S
C685        H687   1.082       .  S
Cu688       N691   2.070       .  S
Cu689       N699   2.108       .  S
Cu690       N692   2.054       .  S
Cu690       N698   2.056   1_545  S
N691        N692   1.319       .  A
N691        C695   1.346       .  A
N692        C693   1.341       .  A
C693        C694   1.382       .  A
C693        H696   1.082       .  S
C694        C695   1.387       .  A
C695        H697   1.082       .  S
N698        N699   1.323       .  A
N698        C702   1.341       .  A
N699        C700   1.352       .  A
C700        C701   1.391       .  A
C700        H703   1.082       .  S
C701        C702   1.378       .  A
C701       C1294   1.479       .  S
C702        H704   1.082   1_565  S
N705        N706   1.323       .  A
N705        C709   1.345       .  A
N705       Cu713   2.083       .  S
N706        C707   1.345       .  A
N706       Cu712   2.072       .  S
C707        C708   1.382       .  A
C707        H710   1.082       .  S
C708        C709   1.384       .  A
C709        H711   1.082       .  S
Cu712       N715   2.073       .  S
Cu713       N723   2.082       .  S
Cu714       N716   2.063       .  S
Cu714       N722   2.063       .  S
N715        N716   1.321       .  A
N715        C719   1.346       .  A
N716        C717   1.341       .  A
C717        C718   1.382       .  A
C717        H720   1.082       .  S
C718        C719   1.385       .  A
C718        C742   1.472       .  S
C719        H721   1.082       .  S
N722        N723   1.321       .  A
N722        C726   1.345       .  A
N723        C724   1.344       .  A
C724        C725   1.386       .  A
C724        H727   1.082       .  S
C725        C726   1.382       .  A
C725       C1284   1.477       .  S
C726        H728   1.082       .  S
N729        N730   1.324       .  A
N729        C733   1.349       .  A
N729       Cu737   2.098       .  S
N730        C731   1.345       .  A
N730       Cu736   2.072       .  S
C731        C732   1.380       .  A
C731        H734   1.082       .  S
C732        C733   1.387       .  A
C733        H735   1.082       .  S
Cu736       N739   2.071       .  S
Cu737       N747   2.097       .  S
Cu738       N740   2.060       .  S
Cu738       N746   2.062       .  S
N739        N740   1.320       .  A
N739        C743   1.346       .  A
N740        C741   1.342       .  A
C741        C742   1.383       .  A
C741        H744   1.082       .  S
C742        C743   1.385       .  A
C743        H745   1.082       .  S
N746        N747   1.323       .  A
N746        C750   1.344       .  A
N747        C748   1.348       .  A
C748        C749   1.389       .  A
C748        H751   1.082       .  S
C749        C750   1.380       .  A
C749       C1274   1.481       .  S
C750        H752   1.082       .  S
C753        C754   1.559       .  S
C753        C759   1.567       .  S
C753        C757   1.565       .  S
C753       C1264   1.547       .  S
C754        H761   1.086       .  S
C754        C755   1.355       .  D
C755        C756   1.573       .  S
C755       C1234   1.510       .  S
C756        C760   1.541       .  S
C756        C758   1.524       .  S
C756        H762   1.092       .  S
C757        H763   1.085       .  S
C757        C758   1.370       .  D
C758       C1244   1.515       .  S
C759        H764   1.074       .  S
C759        C760   1.363       .  D
C760       C1254   1.523       .  S
C765        C766   1.564       .  S
C765        C771   1.555       .  S
C765        C769   1.558       .  S
C765       C1267   1.541       .  S
C766        H773   1.081       .  S
C766        C767   1.367       .  D
C767        C768   1.541       .  S
C767       C1224   1.505       .  S
C768        C772   1.527       .  S
C768        C770   1.547       .  S
C768        H774   1.084       .  S
C769        H775   1.085       .  S
C769        C770   1.368       .  D
C770       C1217   1.503       .  S
C771        H776   1.086       .  S
C771        C772   1.355       .  D
C772       C1207   1.506       .  S
C777       C1194   1.595       .  S
C777       C1227   1.609       .  S
C777       C1297   1.572       .  S
C778       C1174   1.619       .  S
C778       C1187   1.600       .  S
C778       C1214   1.614       .  S
C778       C1307   1.563       .  S
C779       C1147   1.570       .  S
C779       C1164   1.619   1_455  S
C779       C1257   1.621       .  S
C780       C1124   1.565       .  S
C780       C1134   1.612   1_455  S
C780       C1157   1.584       .  S
C780       C1247   1.620       .  S
C781        C782   1.565       .  S
C781        C787   1.552       .  S
C781        C785   1.559       .  S
C781       C1114   1.534       .  S
C782        H789   1.084       .  S
C782        C783   1.367       .  D
C783        C784   1.521       .  S
C783       C1094   1.498       .  S
C784        C788   1.544       .  S
C784        C786   1.537       .  S
C784        H790   1.085       .  S
C785        H791   1.083       .  S
C785        C786   1.362       .  D
C786       C1104   1.506       .  S
C787        H792   1.085       .  S
C787        C788   1.359       .  D
C788       C1084   1.501       .  S
C793        C794   1.571       .  S
C793        C799   1.548       .  S
C793        C797   1.556       .  S
C793       C1117   1.533       .  S
C794        H801   1.083       .  S
C794        C795   1.362       .  D
C795        C796   1.538       .  S
C795       C1167   1.524       .  S
C796        C800   1.576       .  S
C796        C798   1.536       .  S
C796        H802   1.093       .  S
C797        H803   1.085       .  S
C797        C798   1.366       .  D
C798       C1137   1.503       .  S
C799        H804   1.086       .  S
C799        C800   1.354       .  D
C800       C1237   1.514       .  S
C805       C1074   1.606       .  S
C805       C1107   1.618       .  S
C805       C1277   1.556       .  S
C806       C1057   1.609       .  S
C806       C1067   1.601       .  S
C806       C1097   1.618       .  S
C806       C1287   1.557       .  S
C807        C808   1.555       .  S
C807        C813   1.543       .  S
C807        C811   1.565       .  S
C807       C1047   1.541       .  S
C808        H815   1.086       .  S
C808        C809   1.369       .  D
C809        C810   1.524       .  S
C809       C1034   1.483       .  S
C810        C814   1.522       .  S
C810        C812   1.546       .  S
C810        H816   1.111       .  S
C811        H817   1.082       .  S
C811        C812   1.372       .  D
C812       C1024   1.500       .  S
C813        H818   1.087       .  S
C813        C814   1.353       .  D
C814       C1014   1.479       .  S
C819        C820   1.556       .  S
C819        C825   1.548       .  S
C819        C823   1.562       .  S
C819       C1044   1.547       .  S
C820        H827   1.084       .  S
C820        C821   1.365       .  D
C821        C822   1.551       .  S
C821       C1177   1.523       .  S
C822        C826   1.542   1_545  S
C822        C824   1.564       .  S
C822        H828   1.100   1_545  S
C823        C824   1.369       .  D
C824       C1197   1.525   1_545  S
C825        H830   1.087       .  S
C825        C826   1.359   1_545  D
C826       C1204   1.505       .  S
C831        C832   1.558       .  S
C831        C837   1.552       .  S
C831        C835   1.562       .  S
C831       C1004   1.542       .  S
C832        H839   1.086       .  S
C832        C833   1.363   1_545  D
C833        C834   1.557       .  S
C833       C1087   1.501       .  S
C834        C838   1.525   1_565  S
C834        C836   1.523   1_565  S
C834        H840   1.102       .  S
C835        C836   1.367       .  D
C837        H842   1.086       .  S
C837        C838   1.361       .  D
C838       C1054   1.494       .  S
C843        C844   1.551       .  S
C843        C849   1.545       .  S
C843        C847   1.566       .  S
C843       C1007   1.536       .  S
C844        H851   1.086       .  S
C844        C845   1.367       .  D
C845        C846   1.539       .  S
C845        C987   1.502       .  S
C846        C850   1.522       .  S
C846        C848   1.546       .  S
C846        H852   1.091       .  S
C847        H853   1.081       .  S
C847        C848   1.372       .  D
C848        C997   1.508       .  S
C849        H854   1.086       .  S
C849        C850   1.352       .  D
C850       C1017   1.480       .  S
C855        C967   1.566   1_554  S
C855        C994   1.617       .  S
C855       C1037   1.598   1_655  S
C856        C957   1.563       .  S
C856        C974   1.592       .  S
C856        C984   1.601       .  S
C856       C1027   1.603   1_655  S
N857        N858   1.323       .  A
N857        C861   1.349       .  A
N857       Cu865   2.093       .  S
N858        C859   1.344       .  A
N858       Cu864   2.070       .  S
C859        C860   1.381       .  A
C859        H862   1.082       .  S
C860        C861   1.387       .  A
C860        C908   1.470       .  S
C861        H863   1.082   1_455  S
Cu864       N867   2.069       .  S
Cu865       N875   2.093       .  S
Cu866       N868   2.065       .  S
Cu866       N874   2.068       .  S
N867        N868   1.320       .  A
N867        C871   1.345       .  A
N868        C869   1.342       .  A
C869        C870   1.385       .  A
C869        H872   1.082       .  S
C870        C871   1.385       .  A
C870        C894   1.473       .  S
C871        H873   1.082       .  S
N874        N875   1.322       .  A
N874        C878   1.344       .  A
N875        C876   1.347       .  A
C876        C877   1.390       .  A
C876        H879   1.082       .  S
C877        C878   1.384       .  A
C877        C954   1.487       .  S
C878        H880   1.080       .  S
N881        N882   1.325   1_655  A
N881        C885   1.351       .  A
N881       Cu889   2.104       .  S
N882        C883   1.343       .  A
N882       Cu888   2.070       .  S
C883        C884   1.378   1_455  A
C883        H886   1.082       .  S
C884        C885   1.388       .  A
C884        C932   1.471       .  S
Cu888       N891   2.070       .  S
Cu889       N899   2.103       .  S
Cu890       N892   2.061       .  S
Cu890       N898   2.062       .  S
N891        N892   1.319       .  A
N891        C895   1.346       .  A
N892        C893   1.341       .  A
C893        C894   1.383       .  A
C893        H896   1.081       .  S
C894        C895   1.387       .  A
C895        H897   1.082       .  S
N898        N899   1.322   1_455  A
N898        C902   1.343       .  A
N899        C900   1.350       .  A
C900        C901   1.390       .  A
C901        C902   1.380   1_655  A
C901        C964   1.475       .  S
C902        H904   1.082       .  S
N905        N906   1.324       .  A
N905        C909   1.350   1_655  A
N905       Cu913   2.100       .  S
N906        C907   1.344       .  A
N906       Cu912   2.068       .  S
C907        C908   1.379   1_655  A
C907        H910   1.082       .  S
C908        C909   1.387       .  A
C909        H911   1.082       .  S
Cu912       N915   2.069       .  S
Cu913       N923   2.099       .  S
Cu914       N916   2.069       .  S
Cu914       N922   2.071       .  S
N915        N916   1.321       .  A
N915        C919   1.346       .  A
N916        C917   1.341       .  A
C917        C918   1.384       .  A
C917        H920   1.082       .  S
C918        C919   1.385       .  A
C918        C942   1.472       .  S
C919        H921   1.082       .  S
N922        N923   1.323       .  A
N922        C926   1.345       .  A
N923        C924   1.350   1_655  A
C924        C925   1.387   1_455  A
C924        H927   1.082       .  S
C925        C926   1.381       .  A
C925       C1127   1.477       .  S
C926        H928   1.082       .  S
N929        N930   1.325       .  A
N929        C933   1.348       .  A
N929       Cu937   2.103       .  S
N930        C931   1.345       .  A
N930       Cu936   2.074       .  S
C931        C932   1.380       .  A
C931        H934   1.082       .  S
C932        C933   1.387       .  A
C933        H935   1.082       .  S
Cu936       N939   2.074       .  S
Cu937       N947   2.101       .  S
Cu938       N940   2.058       .  S
Cu938       N946   2.060       .  S
N939        N940   1.320       .  A
N939        C943   1.348       .  A
N940        C941   1.340       .  A
C941        C942   1.382       .  A
C941        H944   1.082       .  S
C942        C943   1.388       .  A
C943        H945   1.082       .  S
N946        N947   1.320       .  A
N946        C950   1.340       .  A
N947        C948   1.351       .  A
C948        C949   1.397       .  A
C948        H951   1.081   1_655  S
C949        C950   1.386       .  A
C949       C1144   1.495       .  S
C950        H952   1.081       .  S
C953        C954   1.400   1_655  A
C953        C958   1.399       .  A
C953        H960   1.084       .  S
C954        C955   1.412       .  A
C955        C956   1.402       .  A
C955       Br962   1.919       .  S
C956        C957   1.408   1_455  A
C956        H961   1.076       .  S
C957        C958   1.421       .  A
C958       Br959   1.914       .  S
C963        C964   1.400       .  A
C963        C968   1.412       .  A
C963        H970   1.084       .  S
C964        C965   1.395   1_655  A
C965        C966   1.388       .  A
C965       Br972   1.922       .  S
C966        C967   1.409   1_455  A
C966        H971   1.068       .  S
C967        C968   1.436       .  A
C968       Br969   1.921       .  S
C973        C974   1.408   1_455  A
C973        C978   1.404       .  A
C973        H980   1.081       .  S
C974        C975   1.428       .  A
C975        C976   1.417       .  A
C975       Br982   1.921       .  S
C976        C977   1.415       .  A
C976        H981   1.074       .  S
C977        C978   1.425   1_655  A
C978       Br979   1.925       .  S
C983        C984   1.416       .  A
C983        C988   1.404       .  A
C983        H990   1.061       .  S
C984        C985   1.431       .  A
C985        C986   1.414       .  A
C985       Br992   1.920       .  S
C986        C987   1.403       .  A
C986        H991   1.080       .  S
C987        C988   1.404       .  A
C988       Br989   1.913       .  S
C993        C998   1.416       .  A
C993       H1000   1.078       .  S
C994        C995   1.432   1_554  A
C995      Br1002   1.920       .  S
C996        C997   1.400       .  A
C996       H1001   1.078       .  S
C997        C998   1.415       .  A
C998       Br999   1.912       .  S
C1003      C1004   1.409       .  A
C1003      C1008   1.394       .  A
C1003      H1010   1.084       .  S
C1004      C1005   1.423       .  A
C1005      C1006   1.406       .  A
C1005     Br1012   1.920       .  S
C1006      C1007   1.408       .  A
C1006      H1011   1.077       .  S
C1007      C1008   1.417       .  A
C1008     Br1009   1.926       .  S
C1013      C1014   1.403       .  A
C1013      C1018   1.400   1_455  A
C1013      H1020   1.084       .  S
C1014      C1015   1.405       .  A
C1015      C1016   1.402   1_455  A
C1015     Br1022   1.915       .  S
C1016      C1017   1.404       .  A
C1016      H1021   1.084       .  S
C1017      C1018   1.406       .  A
C1018     Br1019   1.915       .  S
C1023      C1024   1.389       .  A
C1023      C1028   1.375       .  A
C1023      H1030   1.079       .  S
C1024      C1025   1.421       .  A
C1025      C1026   1.422       .  A
C1025     Br1032   1.918       .  S
C1026      C1027   1.429       .  A
C1026      H1031   1.078       .  S
C1027      C1028   1.397       .  A
C1028     Br1029   1.860   1_455  S
C1033      C1034   1.390       .  A
C1033      C1038   1.389       .  A
C1033      H1040   1.078       .  S
C1034      C1035   1.404       .  A
C1035     Br1042   1.916       .  S
C1036      C1037   1.415   1_556  A
C1036      H1041   1.081       .  S
C1043      C1044   1.412       .  A
C1043      C1048   1.401       .  A
C1043      H1050   1.077       .  S
C1044      C1045   1.422       .  A
C1045      C1046   1.404       .  A
C1045     Br1052   1.924       .  S
C1046      C1047   1.410       .  A
C1046      H1051   1.079       .  S
C1047      C1048   1.420       .  A
C1053      C1054   1.401       .  A
C1053      C1058   1.413   1_545  A
C1053      H1060   1.083       .  S
C1054      C1055   1.402   1_545  A
C1055      C1056   1.403       .  A
C1055     Br1062   1.919       .  S
C1056      C1057   1.417       .  A
C1056      H1061   1.052       .  S
C1057      C1058   1.432       .  A
C1058     Br1059   1.928       .  S
C1063      C1064   1.408       .  A
C1063      C1068   1.384       .  A
C1063      H1070   1.049       .  S
C1064      C1065   1.442       .  A
C1065      C1066   1.411       .  A
C1066      C1067   1.415       .  A
C1066      H1071   1.065       .  S
C1067      C1068   1.401       .  A
C1068     Br1069   1.924       .  S
C1073      C1074   1.422       .  A
C1073      C1078   1.402       .  A
C1073      H1080   1.056       .  S
C1074      C1075   1.438       .  A
C1075      C1076   1.417       .  A
C1075     Br1082   1.927       .  S
C1076      C1077   1.399       .  A
C1076      H1081   1.083   1_565  S
C1077      C1078   1.394       .  A
C1083      C1084   1.387       .  A
C1083      C1088   1.368       .  A
C1083      H1090   1.070       .  S
C1084      C1085   1.428       .  A
C1085      C1086   1.436       .  A
C1085     Br1092   1.911       .  S
C1086      C1087   1.421       .  A
C1086      H1091   1.082       .  S
C1087      C1088   1.374       .  A
C1088     Br1089   1.874       .  S
C1093      C1094   1.397       .  A
C1093      C1098   1.404       .  A
C1093      H1100   1.084       .  S
C1094      C1095   1.409       .  A
C1095      C1096   1.424       .  A
C1095     Br1102   1.916       .  S
C1096      C1097   1.420       .  A
C1096      H1101   1.080       .  S
C1097      C1098   1.421       .  A
C1098     Br1099   1.924       .  S
C1103      C1104   1.401       .  A
C1103      H1110   1.083       .  S
C1105      C1106   1.413       .  A
C1105     Br1112   1.915       .  S
C1106      C1107   1.412       .  A
C1106      H1111   1.079       .  S
C1107      C1108   1.444       .  A
C1113      C1114   1.411       .  A
C1113      C1118   1.402       .  A
C1113      H1120   1.080       .  S
C1114      C1115   1.421       .  A
C1115      C1116   1.394       .  A
C1115     Br1122   1.925       .  S
C1116      C1117   1.406       .  A
C1116      H1121   1.078       .  S
C1117      C1118   1.418       .  A
C1118     Br1119   1.924       .  S
C1123      C1124   1.417   1_655  A
C1123      C1128   1.394       .  A
C1123      H1130   1.071       .  S
C1124      C1125   1.436       .  A
C1125      C1126   1.409       .  A
C1125     Br1132   1.924       .  S
C1126      C1127   1.398   1_455  A
C1126      H1131   1.084       .  S
C1127      C1128   1.396       .  A
C1128     Br1129   1.921       .  S
C1133      C1134   1.433       .  A
C1133      C1138   1.399       .  A
C1133      H1140   1.078       .  S
C1134      C1135   1.419       .  A
C1135      C1136   1.422       .  A
C1135     Br1142   1.923       .  S
C1136      C1137   1.410       .  A
C1136      H1141   1.082       .  S
C1137      C1138   1.392       .  A
C1138     Br1139   1.913       .  S
C1143      C1144   1.403       .  A
C1143      C1148   1.400       .  A
C1143      H1150   1.082       .  S
C1144      C1145   1.408   1_655  A
C1145      C1146   1.404       .  A
C1145     Br1152   1.920       .  S
C1146      C1147   1.418       .  A
C1146      H1151   1.072       .  S
C1147      C1148   1.429   1_455  A
C1148     Br1149   1.924       .  S
C1153      C1154   1.424       .  A
C1153      C1158   1.430       .  A
C1154      C1155   1.394       .  A
C1155      C1156   1.352       .  A
C1155     Br1162   1.841       .  S
C1156      C1157   1.388       .  A
C1156      H1161   1.070       .  S
C1157      C1158   1.441       .  A
C1158     Br1159   1.921       .  S
C1163      C1164   1.429       .  A
C1163      H1170   1.061       .  S
C1165      C1166   1.411       .  A
C1165     Br1172   1.921       .  S
C1166      C1167   1.399       .  A
C1166      H1171   1.068       .  S
C1167      C1168   1.409       .  A
C1168     Br1169   1.917       .  S
C1173      C1174   1.425       .  A
C1173      C1178   1.416       .  A
C1173      H1180   1.082       .  S
C1174      C1175   1.420   1_565  A
C1175      C1176   1.431       .  A
C1175     Br1182   1.911       .  S
C1176      C1177   1.409       .  A
C1176      H1181   1.083       .  S
C1177      C1178   1.404   1_545  A
C1178     Br1179   1.912       .  S
C1183      C1184   1.405       .  A
C1183      C1188   1.397       .  A
C1183      H1190   1.072       .  S
C1184      C1185   1.399       .  A
C1185      C1186   1.420       .  A
C1185     Br1192   1.917       .  S
C1186      C1187   1.438       .  A
C1186      H1191   1.068       .  S
C1187      C1188   1.442       .  A
C1188     Br1189   1.903   1_565  S
C1193      C1194   1.422       .  A
C1193      C1198   1.434   1_565  A
C1193      H1200   1.078       .  S
C1195      C1196   1.365       .  A
C1195     Br1202   1.874       .  S
C1196      C1197   1.383       .  A
C1196      H1201   1.073       .  S
C1198     Br1199   1.913       .  S
C1203      C1204   1.405       .  A
C1203      C1208   1.414       .  A
C1203      H1210   1.083       .  S
C1204      C1205   1.413       .  A
C1205      C1206   1.405       .  A
C1206      C1207   1.403       .  A
C1206      H1211   1.080       .  S
C1207      C1208   1.410       .  A
C1208     Br1209   1.917       .  S
C1213      C1214   1.416       .  A
C1213      C1218   1.377       .  A
C1213      H1220   1.066       .  S
C1214      C1215   1.451       .  A
C1215      C1216   1.433       .  A
C1215     Br1222   1.923       .  S
C1216      C1217   1.411       .  A
C1216      H1221   1.083       .  S
C1217      C1218   1.376       .  A
C1218     Br1219   1.890       .  S
C1223      C1224   1.406       .  A
C1223      H1230   1.083       .  S
C1225      C1226   1.411       .  A
C1225     Br1232   1.912       .  S
C1226      C1227   1.428       .  A
C1226      H1231   1.083       .  S
C1227      C1228   1.428       .  A
C1228     Br1229   1.906       .  S
C1233      C1234   1.443       .  A
C1233      C1238   1.469   1_455  A
C1233      H1240   1.082       .  S
C1234      C1235   1.344       .  A
C1235      C1236   1.374   1_455  A
C1235     Br1242   1.942       .  S
C1236      C1237   1.364       .  A
C1236      H1241   1.072       .  S
C1237      C1238   1.450       .  A
C1238     Br1239   1.909       .  S
C1243      C1244   1.401       .  A
C1243      C1248   1.417       .  A
C1243      H1250   1.076       .  S
C1244      C1245   1.399       .  A
C1245      C1246   1.412       .  A
C1245     Br1252   1.922       .  S
C1246      C1247   1.425       .  A
C1246      H1251   1.058       .  S
C1247      C1248   1.437       .  A
C1248     Br1249   1.914       .  S
C1253      C1254   1.416       .  A
C1253      C1258   1.432       .  A
C1253      H1260   1.082       .  S
C1254      C1255   1.400       .  A
C1256      C1257   1.430       .  A
C1256      H1261   1.076       .  S
C1258     Br1259   1.920       .  S
C1263      C1264   1.408       .  A
C1263      C1268   1.398       .  A
C1263      H1270   1.084       .  S
C1264      C1265   1.423       .  A
C1265      C1266   1.406       .  A
C1265     Br1272   1.922       .  S
C1266      C1267   1.410       .  A
C1266      H1271   1.076       .  S
C1267      C1268   1.418       .  A
C1268     Br1269   1.922       .  S
C1273      C1274   1.403       .  A
C1273      C1278   1.404       .  A
C1273      H1280   1.083       .  S
C1274      C1275   1.403       .  A
C1275      C1276   1.394       .  A
C1276      C1277   1.418       .  A
C1276      H1281   1.076   1_556  S
C1277      C1278   1.425       .  A
C1278     Br1279   1.922       .  S
C1283      C1284   1.401       .  A
C1283      C1288   1.405       .  A
C1283      H1290   1.084       .  S
C1284      C1285   1.402       .  A
C1285      C1286   1.390       .  A
C1285     Br1292   1.923       .  S
C1286      C1287   1.419       .  A
C1286      H1291   1.074       .  S
C1287      C1288   1.423       .  A
C1288     Br1289   1.913       .  S
C1293      C1294   1.397       .  A
C1293      C1298   1.407       .  A
C1293      H1300   1.084       .  S
C1294      C1295   1.401       .  A
C1295      C1296   1.396       .  A
C1296      C1297   1.419       .  A
C1297      C1298   1.433       .  A
C1298     Br1299   1.923       .  S
C1303      C1304   1.391       .  A
C1303      C1308   1.396       .  A
C1303      H1310   1.085       .  S
C1304      C1305   1.403       .  A
C1305      C1306   1.405       .  A
C1305     Br1312   1.917       .  S
C1306      C1307   1.418       .  A
C1306      H1311   1.082       .  S
C1307      C1308   1.443       .  A
C1308     Br1309   1.934       .  S
