geometry optimzed in LAMMPS
_audit_creation_date              2020-11-30 
_audit_creation_method            'lammps2cif' 
_symmetry_space_group_name_H-M    'P1' 
_symmetry_Int_Tables_number       1 
_symmetry_cell_setting            triclinic 
loop_ 
_symmetry_equiv_pos_as_xyz 
  x,y,z 
_cell_length_a                    30.60979512 
_cell_length_b                    26.748524372641256 
_cell_length_c                    40.40033510047768 
_cell_angle_alpha                 90.6320796320356 
_cell_angle_beta                  86.52016022744661 
_cell_angle_gamma                 88.9314212882209 
loop_ 
_atom_site_label 
_atom_site_type_symbol 
_atom_site_fract_x 
_atom_site_fract_y 
_atom_site_fract_z 
_atom_site_charge 
C1          C  0.06776938  0.35713791  0.00011911     0.86100
C2          C  0.09136860  0.37640502  0.02982461    -0.54100
C3          C  0.11154675  0.42070041  0.02502405     0.09000
C4          C  0.10343176  0.44623535  0.49071182     0.20000
C5          C  0.03462140  0.39989591  0.99364564    -0.54800
C6          C  0.05348777  0.44629757  0.98905207     0.09100
C7          C  0.10143319  0.36067011  0.47034092    -0.54400
C8          C  0.11957335  0.40611322  0.46493975     0.09700
H9          H  0.09415071  0.35523214  0.05243598     0.14200
H10         H  0.12051096  0.48201949  0.48738766     0.00000
H11         H  0.99991667  0.39370212  0.99295686     0.14500
H12         H  0.10810648  0.32877238  0.45379970     0.14300
C13         C  0.01404960  0.58435091  0.46967326     0.86100
C14         C  0.47803057  0.58121385  0.49777114    -0.54100
C15         C  0.45942675  0.53544526  0.50020997     0.09000
C16         C  0.47985602  0.49644508  0.47525100     0.20000
C17         C  0.04642689  0.54164641  0.47800482    -0.54800
C18         C  0.02786274  0.49502001  0.48093557     0.09100
C19         C  0.49595811  0.56636594  0.43902321    -0.54400
C20         C  0.47733621  0.52046460  0.44095657     0.09700
H21         H  0.46846484  0.61109046  0.01381566     0.14200
H22         H  0.46370173  0.45982303  0.47676396     0.00000
H23         H  0.08055388  0.54787957  0.48135209     0.14500
H24         H  0.49557987  0.58924363  0.41700402     0.14300
Zr25       Zr  0.28281783  0.53035984  0.18258522     2.17500
O26         O  0.23427010  0.59282758  0.15985903    -0.51700
O27         O  0.33465363  0.52686041  0.13473096    -0.74900
O28         O  0.30880090  0.61597950  0.18948990    -0.81700
O29         O  0.22013721  0.42269471  0.15050783    -0.83400
O30         O  0.33962644  0.62213423  0.23906045    -0.79100
O31         O  0.23597165  0.50383355  0.13944108    -0.90700
O32         O  0.38454444  0.46550991  0.14352748    -0.76700
O33         O  0.35173506  0.51964490  0.20621837    -0.86200
O34         O  0.30315628  0.44415184  0.17487992    -0.85800
O35         O  0.26933717  0.55299975  0.24000168    -0.72600
O36         O  0.22519579  0.48276917  0.20952685    -0.84700
Zr37       Zr  0.30325845  0.40689973  0.28423731     2.26400
Zr38       Zr  0.33831545  0.53978784  0.26382713     2.06300
Zr39       Zr  0.24724051  0.39689675  0.20295653     2.10000
Zr40       Zr  0.37152155  0.43372257  0.19881294     1.78800
O41         O  0.16986161  0.37864679  0.21237178    -0.93500
O42         O  0.44190632  0.47387984  0.20256756    -0.41300
O43         O  0.31628589  0.38511872  0.22677101    -0.78000
O44         O  0.36101117  0.45361256  0.25658999    -0.96700
O45         O  0.28211894  0.49269031  0.29182597    -0.90000
O46         O  0.23405046  0.41715801  0.26048811    -0.92800
C47         C  0.36790453  0.49907752  0.12548459     1.00900
C48         C  0.21890983  0.46182917  0.13245106     1.13900
C49         C  0.32673678  0.64123801  0.21221640     1.04700
O50         O  0.41240149  0.57176799  0.26135991    -0.95000
O51         O  0.37538016  0.51355609  0.31203245    -0.90700
O52         O  0.35207217  0.43601757  0.32619901    -0.83900
C53         C  0.37494673  0.47507853  0.33070097     1.11300
O54         O  0.16291359  0.56439827  0.24563133    -0.96900
Zr55       Zr  0.21400974  0.50354977  0.26714707     1.88900
O56         O  0.24847366  0.40889163  0.33033055    -0.73600
O57         O  0.31251344  0.59640274  0.30876086    -0.52900
O58         O  0.20314011  0.57619278  0.30389066    -0.97500
O59         O  0.14043280  0.47022026  0.26641183    -0.54700
O60         O  0.20037802  0.47249801  0.32233844    -0.74100
C61         C  0.21574587  0.43734354  0.33973429     0.98200
O62         O  0.34105846  0.33961641  0.31202980    -0.62900
O63         O  0.25617520  0.32890125  0.16224612    -0.57700
O64         O  0.29005964  0.31850643  0.27155854    -0.94400
O65         O  0.25632672  0.31254019  0.22318680    -0.92800
O66         O  0.38144840  0.35973347  0.16331029    -0.93200
O67         O  0.42779456  0.37314862  0.21266461    -0.92000
C68         C  0.27351316  0.29292702  0.24828653     1.17100
H69         H  0.30546303  0.43458619  0.15175871     0.33000
H70         H  0.38851766  0.44723539  0.26635407     0.43900
H71         H  0.21249636  0.39548632  0.27081533     0.37400
H72         H  0.25996031  0.58761372  0.24222158     0.33900
H73         H  0.46229834  0.45487786  0.18693282     0.25700
H74         H  0.33810174  0.61712623  0.31299988     0.31600
H75         H  0.22229465  0.56983623  0.32234132     0.37500
H76         H  0.35151534  0.34714014  0.16125095     0.32000
H77         H  0.22672503  0.32389334  0.15402625     0.30900
H78         H  0.16482959  0.35067553  0.19690218     0.32500
H79         H  0.14206681  0.43686355  0.27666992     0.31500
H80         H  0.42896763  0.37570893  0.23704971     0.35500
H81         H  0.37269931  0.34512583  0.30714314     0.28200
H82         H  0.25270600  0.61108902  0.14322268     0.32500
H83         H  0.13891361  0.56871607  0.26305058     0.35300
H84         H  0.27361476  0.34288579  0.14322669     0.27900
H85         H  0.33589280  0.34601389  0.33615484     0.40800
H86         H  0.43169749  0.54160199  0.26048813     0.30900
H87         H  0.43832028  0.50674942  0.19192714     0.38500
H88         H  0.13619899  0.46324393  0.24272172     0.30300
H89         H  0.29168804  0.61964413  0.29871161     0.30400
H90         H  0.22719750  0.61733476  0.17804962     0.30700
C91         C  0.32550769  0.08270775  0.24377042     0.86100
C92         C  0.36049059  0.08176645  0.21480905    -0.54100
C93         C  0.38216877  0.03708106  0.21013307     0.09000
C94         C  0.36875775  0.99734508  0.23580786     0.20000
C95         C  0.29664845  0.03765212  0.23679938    -0.54800
C96         C  0.31891721  0.99231671  0.23282010     0.09100
C97         C  0.35118832  0.06708897  0.27361546    -0.54400
C98         C  0.37419096  0.02320047  0.26948661     0.09700
H99         H  0.36603825  0.11290943  0.19814222     0.14200
H100        H  0.38844477  0.96232320  0.23242325     0.00000
H101        H  0.26180041  0.04263632  0.23463804     0.14500
H102        H  0.35464643  0.09000774  0.29548817     0.14300
C103        C  0.28984069  0.85387437  0.21159771     0.86100
C104        C  0.26622212  0.87154183  0.18125387    -0.54100
C105        C  0.24487826  0.91637880  0.18516717     0.09000
C106        C  0.24787344  0.93988449  0.21985143     0.20000
C107        C  0.31930705  0.89812704  0.22013620    -0.54800
C108        C  0.29743877  0.94374583  0.22445808     0.09100
C109        C  0.25368241  0.85469618  0.23966263    -0.54400
C110        C  0.23240083  0.89962043  0.24465553     0.09700
H111        H  0.26417694  0.85046336  0.15850024     0.14200
H112        H  0.22859390  0.97516013  0.22283069     0.00000
H113        H  0.35411046  0.89287596  0.22256996     0.14500
H114        H  0.24763722  0.82310715  0.25586538     0.14300
Zr115      Zr  0.06755071  0.02744329  0.03149956     2.17500
O116        O  0.11432558  0.08283159  0.06144519    -0.51700
O117        O  0.01224026  0.02780496  0.07746971    -0.74900
O118        O  0.04998218  0.11607280  0.02398580    -0.81700
O119        O  0.14140145  0.92030317  0.05543695    -0.83400
O120        O  0.01809578  0.12817914  0.47454609    -0.79100
O121        O  0.11488280  0.99667844  0.07322844    -0.90700
O122        O  0.46220685  0.97342570  0.06506625    -0.76700
O123        O  0.99956162  0.02414516  0.00582932    -0.86200
O124        O  0.04510655  0.94286510  0.03634161    -0.85800
O125        O  0.08608015  0.05048436  0.47301062    -0.72600
O126        O  0.12609245  0.97672994  0.50241713    -0.84700
Zr127      Zr  0.04723125  0.91037220  0.42490664     2.26400
Zr128      Zr  0.01743079  0.04625377  0.44764100     2.06300
Zr129      Zr  0.10158609  0.89251478  0.00818177     2.10000
Zr130      Zr  0.47826708  0.94036117  0.00981843     1.78800
O131        O  0.17513804  0.85835806  0.49542773    -0.93500
O132        O  0.40624309  0.98025559  0.00800291    -0.41300
O133        O  0.03295111  0.88874005  0.48177846    -0.78000
O134        O  0.49031936  0.96395260  0.45302626    -0.96700
O135        O  0.07225699  0.99370718  0.41956080    -0.90000
O136        O  0.11619306  0.91233064  0.44967890    -0.92800
C137        C  0.47846098  0.00558212  0.08430973     1.00900
C138        C  0.13953013  0.95776332  0.07577085     1.13900
C139        C  0.03155160  0.14373487  0.00275986     1.04700
O140        O  0.44087649  0.07590396  0.45391770    -0.95000
O141        O  0.48734527  0.02800123  0.39611273    -0.90700
O142        O  0.49806825  0.94484722  0.38561250    -0.83900
C143        C  0.48308357  0.98834586  0.37844187     1.11300
O144        O  0.19366360  0.05610607  0.46252822    -0.96900
Zr145      Zr  0.13999697  0.99646660  0.44523932     1.88900
O146        O  0.10317959  0.90791047  0.37940254    -0.73600
O147        O  0.04249687  0.10905875  0.40790797    -0.52900
O148        O  0.15267085  0.06493247  0.40678094    -0.97500
O149        O  0.21072420  0.95496922  0.45119813    -0.54700
O150        O  0.15598400  0.96283279  0.39046179    -0.74100
C151        C  0.13833789  0.93146892  0.37151525     0.98200
O152        O  0.51557768  0.84594728  0.39284623    -0.62900
O153        O  0.08844275  0.83335014  0.05301572    -0.57700
O154        O  0.04713209  0.82201334  0.43986582    -0.94400
O155        O  0.08610245  0.81015039  0.48540584    -0.91600
O156        O  0.46998629  0.86503652  0.04275665    -0.93200
O157        O  0.42267348  0.88490514  0.99060236    -0.92000
C158        C  0.06381723  0.79396301  0.46171231     1.17100
H159        H  0.04151825  0.93338006  0.05931722     0.33000
H160        H  0.46292874  0.96105402  0.44263958     0.43900
H161        H  0.13685678  0.88861643  0.43902726     0.37400
H162        H  0.09729486  0.08393604  0.47172307     0.33900
H163        H  0.38893936  0.96675588  0.02728161     0.25700
H164        H  0.01890825  0.13496940  0.40863860     0.31600
H165        H  0.12888360  0.06274837  0.39130335     0.37500
H166        H  0.44989734  0.87490994  0.06192998     0.32000
H167        H  0.11794412  0.82220710  0.05897670     0.30900
H168        H  0.17441376  0.82438308  0.00764156     0.32500
H169        H  0.20936926  0.92261214  0.43921227     0.31500
H170        H  0.43801219  0.86889269  0.47097762     0.35500
H171        H  0.48344722  0.85130748  0.39543952     0.28200
H172        H  0.09428228  0.10434198  0.07584293     0.32500
H173        H  0.21896944  0.05231384  0.44614984     0.35300
H174        H  0.07678651  0.85369000  0.07229824     0.27900
H175        H  0.52371501  0.85419182  0.36946869     0.40800
H176        H  0.43891112  0.10240014  0.43713186     0.30900
H177        H  0.41073354  0.01568663  0.01403713     0.38500
H178        H  0.21065973  0.94598653  0.47490359     0.30300
H179        H  0.06730381  0.12537179  0.41803272     0.30400
H180        H  0.12763145  0.10547048  0.04462004     0.30700
C181        C  0.17548531  0.87356036  0.28800766    -0.21700
C182        C  0.20418699  0.91004708  0.27522899    -0.09700
C183        C  0.20975656  0.95372466  0.29404267     0.29100
C184        C  0.18748144  0.96048129  0.32483335    -0.21700
C185        C  0.15982486  0.92350659  0.33810452    -0.09700
C186        C  0.15367080  0.87994864  0.31927116     0.29100
F187        F  0.12834351  0.84258548  0.33162009    -0.20300
H188        H  0.17095000  0.83933940  0.27416609     0.17500
H189        H  0.19280599  0.99452538  0.33868215     0.17500
F190        F  0.23914286  0.98846131  0.28416354    -0.20200
C191        C  0.17686075  0.95448567  0.16353971    -0.21700
C192        C  0.22035243  0.93755591  0.15778892    -0.09700
C193        C  0.23843178  0.93407239  0.12489067     0.29100
C194        C  0.21216691  0.94210238  0.09833363    -0.21700
C195        C  0.16788801  0.95555825  0.10400903    -0.09700
C196        C  0.15079038  0.96388124  0.13679253     0.29100
F197        F  0.10810770  0.97744961  0.14297062    -0.20300
H198        H  0.16231344  0.95744189  0.18861639     0.17500
H199        H  0.22621592  0.93686517  0.07323841     0.17500
F200        F  0.28122169  0.92101101  0.11842393    -0.20200
C201        C  0.43203428  0.95549877  0.33697506    -0.21700
C202        C  0.45912309  0.99364606  0.34784351    -0.09700
C203        C  0.46220645  0.03806689  0.32966548     0.29100
C204        C  0.43648549  0.04555463  0.30281783    -0.21700
C205        C  0.40706302  0.00913821  0.29339923    -0.09700
C206        C  0.40618855  0.96310208  0.30977410     0.29100
F207        F  0.37871401  0.92683663  0.30071827    -0.20300
H208        H  0.42954725  0.92069868  0.35035254     0.17500
H209        H  0.43843125  0.08083611  0.28992748     0.17500
F210        F  0.99156753  0.07213895  0.33581545    -0.20200
C211        C  0.44515490  0.05704261  0.17067747    -0.21700
C212        C  0.40988019  0.02633508  0.17972614    -0.09700
C213        C  0.39814339  0.98853781  0.15788441     0.29100
C214        C  0.42056842  0.98244805  0.12708535    -0.21700
C215        C  0.45571269  0.01336027  0.11748534    -0.09700
C216        C  0.46843848  0.05028292  0.14000411     0.29100
F217        F  0.99837496  0.08147689  0.13139188    -0.20300
H218        H  0.45438352  0.08652623  0.18732464     0.17500
H219        H  0.40994094  0.95346728  0.11063033     0.17500
F220        F  0.36349969  0.95905632  0.16545674    -0.20200
C221        C  0.33683669  0.72695382  0.23657378    -0.21700
C222        C  0.32948133  0.69669853  0.20874857    -0.09700
C223        C  0.31982850  0.72059208  0.17917031     0.29100
C224        C  0.31233872  0.77237121  0.17878320    -0.21700
C225        C  0.31251441  0.80177659  0.20814786    -0.09700
C226        C  0.32883645  0.77877841  0.23625869     0.29100
F227        F  0.33338051  0.80566753  0.26448919    -0.20300
H228        H  0.34589106  0.71020320  0.25951764     0.17500
H229        H  0.30482933  0.78790886  0.15531311     0.17500
F230        F  0.31560223  0.69388606  0.15079978    -0.20200
C231        C  0.29729706  0.16098536  0.27746701    -0.21700
C232        C  0.30111299  0.13372519  0.24721078    -0.09700
C233        C  0.28566136  0.15735499  0.21897635     0.29100
C234        C  0.27433930  0.20848852  0.21991287    -0.21700
C235        C  0.27692772  0.23714714  0.24919816    -0.09700
C236        C  0.28616152  0.21201329  0.27839965     0.29100
F237        F  0.28562131  0.23690809  0.30788190    -0.20300
H238        H  0.30373494  0.14389533  0.30074290     0.17500
H239        H  0.26587322  0.22615291  0.19711373     0.17500
F240        F  0.28447655  0.13193573  0.18977250    -0.20200
C241        C  0.41435825  0.47488228  0.41795243    -0.21700
C242        C  0.45477823  0.49867800  0.41269509    -0.09700
C243        C  0.47123121  0.50656121  0.37991027     0.29100
C244        C  0.44564852  0.49636828  0.35337388    -0.21700
C245        C  0.40375113  0.47661072  0.35871432    -0.09700
C246        C  0.38900719  0.46357792  0.39108013     0.29100
F247        F  0.34879905  0.44381739  0.39697855    -0.20300
H248        H  0.40109318  0.46795795  0.44290151     0.17500
H249        H  0.45813197  0.50534790  0.32851578     0.17500
F250        F  0.00879483  0.52359293  0.37357238    -0.20200
C251        C  0.44054911  0.47906357  0.04686965    -0.21700
C252        C  0.43055264  0.52180681  0.02889644    -0.09700
C253        C  0.39782666  0.55541888  0.04181573     0.29100
C254        C  0.37689363  0.54730635  0.07289695    -0.21700
C255        C  0.38840797  0.50574690  0.09173791    -0.09700
C256        C  0.41997951  0.47104175  0.07802198     0.29100
F257        F  0.43198757  0.42987050  0.09488346    -0.20300
H258        H  0.46610189  0.45310042  0.03767844     0.17500
H259        H  0.35250917  0.57440474  0.08255686     0.17500
F260        F  0.38683368  0.59674427  0.02472988    -0.20200
C261        C  0.07263648  0.65289830  0.47206741    -0.21700
C262        C  0.02995026  0.63811891  0.46566378    -0.09700
C263        C  0.50060322  0.67630779  0.45927419     0.29100
C264        C  0.51268525  0.72618864  0.45636357    -0.21700
C265        C  0.05398414  0.73999455  0.46089789    -0.09700
C266        C  0.08436908  0.70334897  0.47006786     0.29100
F267        F  0.12546460  0.71633777  0.47710663    -0.20300
H268        H  0.09695428  0.62629508  0.47948298     0.17500
H269        H  0.48807209  0.75388602  0.45061981     0.17500
F270        F  0.45836450  0.66487146  0.45457438    -0.20200
C271        C  0.16653490  0.46794792  0.38716445    -0.21700
C272        C  0.19387531  0.42977250  0.37283583    -0.09700
C273        C  0.19867369  0.38477212  0.39003259     0.29100
C274        C  0.17589326  0.37819257  0.42063378    -0.21700
C275        C  0.14757476  0.41596199  0.43451060    -0.09700
C276        C  0.14328289  0.46107527  0.41739671     0.29100
F277        F  0.11459633  0.49753792  0.42850559    -0.20300
H278        H  0.16221935  0.50308445  0.37457190     0.17500
H279        H  0.17986717  0.34301262  0.43321128     0.17500
F280        F  0.22400725  0.34644448  0.37686971    -0.20200
C281        C  0.16659596  0.49326901  0.09148785    -0.21700
C282        C  0.19662912  0.45670015  0.10132590    -0.09700
C283        C  0.20252168  0.41219936  0.08269588     0.29100
C284        C  0.17665758  0.40285790  0.05631704    -0.21700
C285        C  0.14406813  0.43730243  0.04814254    -0.09700
C286        C  0.14011551  0.48350176  0.06501795     0.29100
F287        F  0.10864946  0.51726469  0.05761766    -0.20300
H288        H  0.16176099  0.52785851  0.10553497     0.17500
H289        H  0.18062597  0.36738340  0.04314951     0.17500
F290        F  0.23237242  0.37687137  0.09071499    -0.20200
C291        C  0.01233448  0.28510017  0.99632125    -0.21700
C292        C  0.05328142  0.30285819  0.00503101    -0.09700
C293        C  0.08485444  0.26918939  0.51600990     0.29100
C294        C  0.07594480  0.21838891  0.51716741    -0.21700
C295        C  0.03540040  0.19873168  0.00670357    -0.09700
C296        C  0.00375561  0.23338677  0.99655694     0.29100
F297        F  0.96505357  0.21719784  0.98620771    -0.20300
H298        H  0.98778264  0.31048060  0.98763526     0.17500
H299        H  0.10107617  0.19295363  0.52514958     0.17500
F300        F  0.12539201  0.28324533  0.52389151    -0.20200
C301        C  0.06798611  0.35878792  0.49994678     0.86100
C302        C  0.09129618  0.37883482  0.52961835    -0.54100
C303        C  0.11113189  0.42331707  0.52458099     0.09000
C304        C  0.10384045  0.44437909  0.99137736     0.20000
C305        C  0.03451365  0.40123333  0.49316655    -0.54800
C306        C  0.05307018  0.44780813  0.48845192     0.09100
C307        C  0.10116261  0.35927136  0.97040131    -0.54400
C308        C  0.11979151  0.40466669  0.96527695     0.09700
H309        H  0.09414538  0.35813735  0.55240659     0.14200
H310        H  0.12099075  0.48016619  0.98847399     0.00000
H311        H  0.99981878  0.39478408  0.49258808     0.14500
H312        H  0.10742827  0.32754014  0.95367327     0.14300
C313        C  0.01485136  0.58269413  0.96958937     0.86100
C314        C  0.47708933  0.58043664  0.99664600    -0.54100
C315        C  0.45891137  0.53448119  0.99942732     0.09000
C316        C  0.47930792  0.49548151  0.97445065     0.20000
C317        C  0.04702172  0.54009840  0.97854753    -0.54800
C318        C  0.02859158  0.49338141  0.98096916     0.09100
C319        C  0.49525160  0.56528152  0.93802345    -0.54400
C320        C  0.47677964  0.51933651  0.94006292     0.09700
H321        H  0.46929392  0.61181244  0.51496508     0.14200
H322        H  0.46322376  0.45885017  0.97615526     0.00000
H323        H  0.08088697  0.54644459  0.98281333     0.14500
H324        H  0.49477970  0.58812743  0.91600524     0.14300
Zr325      Zr  0.28235310  0.53063906  0.68287418     2.17500
O326        O  0.23336409  0.59208311  0.65959522    -0.51700
O327        O  0.33437316  0.52808655  0.63508668    -0.74900
O328        O  0.30701162  0.61657465  0.69109711    -0.81700
O329        O  0.22090888  0.42213082  0.64954006    -0.83400
O330        O  0.33661711  0.62223439  0.74116662    -0.79100
O331        O  0.23620640  0.50375301  0.63935717    -0.90700
O332        O  0.38449445  0.46680887  0.64350486    -0.76700
O333        O  0.35087895  0.52146542  0.70736850    -0.86200
O334        O  0.30450847  0.44512216  0.67474364    -0.85800
O335        O  0.26700979  0.55196835  0.74032015    -0.72600
O336        O  0.22535650  0.48105968  0.70873441    -0.84700
Zr337      Zr  0.30306550  0.40608500  0.78369461     2.26400
Zr338      Zr  0.33563730  0.53991800  0.76497682     2.06300
Zr339      Zr  0.24922944  0.39578322  0.70165649     2.10000
Zr340      Zr  0.37261572  0.43614462  0.69924975     1.78800
O341        O  0.17285421  0.37260543  0.71007914    -0.93500
O342        O  0.44418944  0.47489873  0.69712976    -0.41300
O343        O  0.31791074  0.38550801  0.72617560    -0.78000
O344        O  0.36036659  0.45491545  0.75715446    -0.96700
O345        O  0.27979585  0.49105019  0.79190703    -0.90000
O346        O  0.23437016  0.41507288  0.75919249    -0.92800
C347        C  0.36738070  0.50014383  0.62551673     1.00900
C348        C  0.21930683  0.46181138  0.63195019     1.13900
C349        C  0.32435419  0.64149807  0.71428092     1.04700
O350        O  0.41188787  0.56453924  0.76047876    -0.95000
O351        O  0.36940370  0.51478311  0.81464727    -0.90700
O352        O  0.35228702  0.43396533  0.82548010    -0.83900
C353        C  0.37200808  0.47474014  0.83157253     1.11300
O354        O  0.16008601  0.56173257  0.74623373    -0.96900
Zr355      Zr  0.21219963  0.50075076  0.76638183     1.88900
O356        O  0.24901627  0.40854938  0.83045678    -0.73600
O357        O  0.31529773  0.60064062  0.80897662    -0.52900
O358        O  0.20248871  0.57291766  0.80364467    -0.97500
O359        O  0.13909154  0.46715103  0.76252461    -0.54700
O360        O  0.19736365  0.46793306  0.82112444    -0.74100
C361        C  0.21467221  0.43489306  0.83923488     0.98200
O362        O  0.34014106  0.33679473  0.80990116    -0.62900
O363        O  0.26476683  0.33006107  0.66006533    -0.57700
O364        O  0.28983920  0.31774407  0.77147912    -0.94400
O365        O  0.25773958  0.31158386  0.72244889    -0.92800
O366        O  0.38292317  0.36139160  0.66459391    -0.93200
O367        O  0.42981942  0.38061226  0.71805634    -0.92000
C368        C  0.27396425  0.29208224  0.74798927     1.17100
H369        H  0.30710172  0.43587764  0.65158405     0.33000
H370        H  0.38777330  0.44960308  0.76726651     0.43900
H371        H  0.21312626  0.39271476  0.76917491     0.37400
H372        H  0.25699814  0.58635746  0.74269537     0.33900
H373        H  0.46056501  0.45879794  0.67783487     0.25700
H374        H  0.34019786  0.62375807  0.80909199     0.31600
H375        H  0.22283255  0.56664845  0.82134348     0.37500
H376        H  0.35327168  0.34756011  0.66364164     0.32000
H377        H  0.23575938  0.31907155  0.65357202     0.30900
H378        H  0.16783388  0.34973689  0.69131370     0.32500
H379        H  0.14122001  0.43213464  0.76999049     0.31500
H380        H  0.42228132  0.37573897  0.74196510     0.35500
H381        H  0.37174318  0.34436075  0.80812809     0.28200
H382        H  0.25217233  0.61239940  0.64439193     0.32500
H383        H  0.13695643  0.56628901  0.76429883     0.35300
H384        H  0.27770589  0.34714650  0.64030156     0.27900
H385        H  0.33130755  0.33972777  0.83383961     0.40800
H386        H  0.41473415  0.58815000  0.77924267     0.30900
H387        H  0.43878167  0.50965555  0.69000665     0.38500
H388        H  0.13513340  0.46439482  0.73842771     0.30300
H389        H  0.29104413  0.62085857  0.80052952     0.30400
H390        H  0.22394415  0.61495143  0.67823298     0.30700
C391        C  0.32550335  0.08171155  0.74386681     0.86100
C392        C  0.35997203  0.08051572  0.71452930    -0.54100
C393        C  0.38140727  0.03572618  0.70976923     0.09000
C394        C  0.36822796  0.99607560  0.73547445     0.20000
C395        C  0.29623370  0.03683047  0.73726381    -0.54800
C396        C  0.31827365  0.99144113  0.73282965     0.09100
C397        C  0.35170645  0.06593036  0.77343055    -0.54400
C398        C  0.37440460  0.02182800  0.76912318     0.09700
H399        H  0.36545109  0.11158254  0.69778282     0.14200
H400        H  0.38771705  0.96095990  0.73180475     0.00000
H401        H  0.26124817  0.04183830  0.73586631     0.14500
H402        H  0.35563534  0.08887515  0.79522130     0.14300
C403        C  0.28819062  0.85313713  0.71279699     0.86100
C404        C  0.26485763  0.86953529  0.68210352    -0.54100
C405        C  0.24388457  0.91480043  0.68508825     0.09000
C406        C  0.24688017  0.93960584  0.71954191     0.20000
C407        C  0.31791389  0.89732094  0.72073987    -0.54800
C408        C  0.29643006  0.94313357  0.72439273     0.09100
C409        C  0.25159583  0.85504263  0.74056507    -0.54400
C410        C  0.23082890  0.90026940  0.74480554     0.09700
H411        H  0.26216132  0.84659060  0.66018027     0.14200
H412        H  0.22797548  0.97517745  0.72219049     0.00000
H413        H  0.35261304  0.89177441  0.72351690     0.14500
H414        H  0.24475054  0.82411819  0.75718416     0.14300
Zr415      Zr  0.06930186  0.02829859  0.52974697     2.17500
O416        O  0.12005330  0.08384960  0.55552803    -0.51700
O417        O  0.01453944  0.02950712  0.57608825    -0.74900
O418        O  0.05135693  0.11700705  0.52279056    -0.81700
O419        O  0.13899405  0.92019290  0.55548735    -0.83400
O420        O  0.01440759  0.12695188  0.97671260    -0.79100
O421        O  0.11438858  0.99749949  0.57286180    -0.90700
O422        O  0.46277703  0.97312954  0.56544967    -0.76700
O423        O  0.00109289  0.02532809  0.50445374    -0.86200
O424        O  0.04585735  0.94406328  0.53502246    -0.85800
O425        O  0.08465408  0.05066159  0.97494772    -0.72600
O426        O  0.12492573  0.97696309  0.00395339    -0.84700
Zr427      Zr  0.04794852  0.90979697  0.92619213     2.26400
Zr428      Zr  0.01648511  0.04535611  0.94904470     2.06300
Zr429      Zr  0.10150561  0.89280894  0.50698733     2.10000
Zr430      Zr  0.47772217  0.94289523  0.50994591     1.78800
O431        O  0.17422232  0.85613915  0.99528942    -0.93500
O432        O  0.40894204  0.98953733  0.50669263    -0.41300
O433        O  0.03315484  0.88781079  0.98290584    -0.78000
O434        O  0.49145255  0.96170740  0.95262552    -0.96700
O435        O  0.07187041  0.99364966  0.92109923    -0.90000
O436        O  0.11676464  0.91306638  0.95108084    -0.92800
C437        C  0.47925985  0.00474469  0.58484029     1.00900
C438        C  0.13784474  0.95771532  0.57575614     1.13900
C439        C  0.03408969  0.14482198  0.50107723     1.04700
O440        O  0.44070281  0.07320390  0.95385474    -0.95000
O441        O  0.48927422  0.02588716  0.89486889    -0.90700
O442        O  0.50009781  0.94275463  0.88461230    -0.83900
C443        C  0.48516642  0.98616418  0.87720473     1.11300
O444        O  0.19133155  0.05658870  0.96788281    -0.96900
Zr445      Zr  0.13929009  0.99781530  0.94699807     1.88900
O446        O  0.10344201  0.90956351  0.88034500    -0.73600
O447        O  0.04494555  0.10760173  0.91017893    -0.52900
O448        O  0.15159497  0.06909458  0.91077561    -0.97500
O449        O  0.21105302  0.95878932  0.95240839    -0.54700
O450        O  0.15520434  0.96577124  0.89141403    -0.74100
C451        C  0.13809296  0.93402781  0.87231135     0.98200
O452        O  0.52091018  0.84500359  0.89036086    -0.62900
O453        O  0.08808977  0.83208855  0.55088154    -0.57700
O454        O  0.04941139  0.82092414  0.94049191    -0.94400
O455        O  0.08621380  0.80939687  0.98711552    -0.91600
O456        O  0.46092365  0.87062927  0.54416999    -0.93200
O457        O  0.42217686  0.88921423  0.48866167    -0.92000
C458        C  0.06509918  0.79293866  0.96284449     1.17100
H459        H  0.04243178  0.93464189  0.55802036     0.33000
H460        H  0.46430712  0.95827385  0.94195632     0.43900
H461        H  0.13798549  0.89003720  0.94032941     0.37400
H462        H  0.09551054  0.08430153  0.97384572     0.33900
H463        H  0.38814310  0.97291350  0.52253903     0.25700
H464        H  0.02089019  0.13262010  0.90886015     0.31600
H465        H  0.13099636  0.06484178  0.89302320     0.37500
H466        H  0.47885518  0.84295218  0.53364003     0.32000
H467        H  0.11712841  0.81663539  0.55417798     0.30900
H468        H  0.18400521  0.84564777  0.51699624     0.32500
H469        H  0.21366147  0.93216565  0.93515861     0.31500
H470        H  0.43859680  0.86288393  0.97389634     0.35500
H471        H  0.48862113  0.84728025  0.89387033     0.28200
H472        H  0.10183652  0.10756585  0.56971184     0.32500
H473        H  0.21591232  0.05739495  0.95080142     0.35300
H474        H  0.08094982  0.85203376  0.57134930     0.27900
H475        H  0.52733222  0.85558377  0.86718862     0.40800
H476        H  0.42420752  0.04426504  0.94612489     0.30900
H477        H  0.41390235  0.02242167  0.51716862     0.38500
H478        H  0.20830956  0.94071569  0.97365296     0.30300
H479        H  0.06778874  0.12520952  0.92185118     0.30400
H480        H  0.13297598  0.10420279  0.53724610     0.30700
C481        C  0.16966151  0.88026479  0.78616246    -0.21700
C482        C  0.20362411  0.91196210  0.77555869    -0.09700
C483        C  0.21527008  0.95090996  0.79664193     0.29100
C484        C  0.19357863  0.95783753  0.82770867    -0.21700
C485        C  0.15981134  0.92598383  0.83872424    -0.09700
C486        C  0.14764825  0.88726746  0.81733352     0.29100
F487        F  0.11541225  0.85530462  0.82671338    -0.20300
H488        H  0.16075684  0.84943785  0.77047765     0.17500
H489        H  0.20394375  0.98794345  0.84338873     0.17500
F490        F  0.24958238  0.98038583  0.78837291    -0.20200
C491        C  0.17726575  0.95646213  0.66319489    -0.21700
C492        C  0.21927511  0.93492861  0.65731822    -0.09700
C493        C  0.23575990  0.92716720  0.62425142     0.29100
C494        C  0.20929376  0.93616165  0.59800924    -0.21700
C495        C  0.16636318  0.95450042  0.60389692    -0.09700
C496        C  0.15095915  0.96652789  0.63663504     0.29100
F497        F  0.10954522  0.98453968  0.64311669    -0.20300
H498        H  0.16385172  0.96278962  0.68834475     0.17500
H499        H  0.22215344  0.92789969  0.57292063     0.17500
F500        F  0.27719812  0.90945966  0.61722858    -0.20200
C501        C  0.43331815  0.95352368  0.83606923    -0.21700
C502        C  0.46114004  0.99128771  0.84650459    -0.09700
C503        C  0.46406902  0.03566702  0.82824944     0.29100
C504        C  0.43779166  0.04339093  0.80169716    -0.21700
C505        C  0.40767683  0.00741924  0.79275373    -0.09700
C506        C  0.40653523  0.96159064  0.80941064     0.29100
F507        F  0.37759489  0.92623585  0.80142443    -0.20300
H508        H  0.43067525  0.91887385  0.84960135     0.17500
H509        H  0.43973547  0.07864244  0.78877354     0.17500
F510        F  0.99344159  0.07240397  0.83726389    -0.20200
C511        C  0.44722745  0.05160623  0.67232769    -0.21700
C512        C  0.40898097  0.02477334  0.67943950    -0.09700
C513        C  0.39484649  0.99053050  0.65610740     0.29100
C514        C  0.41818121  0.98412207  0.62570380    -0.21700
C515        C  0.45625858  0.01156678  0.61793981    -0.09700
C516        C  0.47118184  0.04464061  0.64197606     0.29100
F517        F  0.00469922  0.08007278  0.63141778    -0.20300
H518        H  0.45829167  0.07822225  0.69024926     0.17500
H519        H  0.40573770  0.95805395  0.60802463     0.17500
F520        F  0.35720164  0.96519187  0.66190855    -0.20200
C521        C  0.33173707  0.72645775  0.73989160    -0.21700
C522        C  0.32746595  0.69671979  0.71131970    -0.09700
C523        C  0.32185851  0.72082996  0.68114338     0.29100
C524        C  0.31420426  0.77255562  0.68061432    -0.21700
C525        C  0.31100118  0.80133351  0.71030003    -0.09700
C526        C  0.32441033  0.77822788  0.73929568     0.29100
F527        F  0.32640891  0.80493844  0.76791943    -0.20300
H528        H  0.33789949  0.70941142  0.76339203     0.17500
H529        H  0.30959454  0.78890132  0.65679474     0.17500
F530        F  0.32221839  0.69433128  0.65226555    -0.20200
C531        C  0.29805872  0.16041861  0.77763361    -0.21700
C532        C  0.30137096  0.13289058  0.74746097    -0.09700
C533        C  0.28522682  0.15619506  0.71936456     0.29100
C534        C  0.27419422  0.20737890  0.72010095    -0.21700
C535        C  0.27707530  0.23629063  0.74922051    -0.09700
C536        C  0.28627555  0.21132693  0.77852037     0.29100
F537        F  0.28467003  0.23618008  0.80806140    -0.20300
H538        H  0.30502800  0.14351983  0.80087067     0.17500
H539        H  0.26544727  0.22480423  0.69729348     0.17500
F540        F  0.28289322  0.13029446  0.69045754    -0.20200
C541        C  0.41399437  0.47311220  0.91769614    -0.21700
C542        C  0.45396557  0.49765906  0.91196679    -0.09700
C543        C  0.46923910  0.50683271  0.87903097     0.29100
C544        C  0.44283490  0.49703320  0.85297701    -0.21700
C545        C  0.40145578  0.47631966  0.85894971    -0.09700
C546        C  0.38786954  0.46222854  0.89127122     0.29100
F547        F  0.34796571  0.44194313  0.89760583    -0.20300
H548        H  0.40154892  0.46539737  0.94273432     0.17500
H549        H  0.45422747  0.50702244  0.82803531     0.17500
F550        F  0.00949441  0.52532109  0.87183531    -0.20200
C551        C  0.43854150  0.47913389  0.54644591    -0.21700
C552        C  0.42983433  0.52272169  0.52898910    -0.09700
C553        C  0.39706886  0.55644914  0.54178659     0.29100
C554        C  0.37572256  0.54809383  0.57272297    -0.21700
C555        C  0.38692089  0.50625332  0.59143667    -0.09700
C556        C  0.41745502  0.47076816  0.57731478     0.29100
F557        F  0.42805024  0.42847750  0.59354194    -0.20300
H558        H  0.46368386  0.45275096  0.53719842     0.17500
H559        H  0.35153865  0.57535224  0.58248242     0.17500
F560        F  0.38654342  0.59809818  0.52484922    -0.20200
C561        C  0.07339266  0.65143771  0.97324900    -0.21700
C562        C  0.03090020  0.63665636  0.96614088    -0.09700
C563        C  0.50056734  0.67520414  0.95677151     0.29100
C564        C  0.51312125  0.72493441  0.95383532    -0.21700
C565        C  0.05528162  0.73877395  0.96190556    -0.09700
C566        C  0.08523419  0.70197335  0.97162106     0.29100
F567        F  0.12601221  0.71485900  0.97955660    -0.20300
H568        H  0.09747710  0.62475805  0.98093543     0.17500
H569        H  0.48925742  0.75257833  0.94667249     0.17500
F570        F  0.45876790  0.66385597  0.95050786    -0.20200
C571        C  0.16882147  0.46719799  0.88804271    -0.21700
C572        C  0.19354325  0.42772484  0.87265245    -0.09700
C573        C  0.19677391  0.38203201  0.88921724     0.29100
C574        C  0.17479743  0.37592495  0.92019237    -0.21700
C575        C  0.14832320  0.41468871  0.93497472    -0.09700
C576        C  0.14618028  0.46085388  0.91866003     0.29100
F577        F  0.12020543  0.49911977  0.93087873    -0.20300
H578        H  0.16613638  0.50299293  0.87595818     0.17500
H579        H  0.17765095  0.34014018  0.93220380     0.17500
F580        F  0.21926256  0.34244601  0.87485327    -0.20200
C581        C  0.16551181  0.49403387  0.59229778    -0.21700
C582        C  0.19661046  0.45775316  0.60089544    -0.09700
C583        C  0.20335702  0.41466286  0.58096264     0.29100
C584        C  0.17748820  0.40632563  0.55442492    -0.21700
C585        C  0.14385236  0.44017623  0.54748750    -0.09700
C586        C  0.13885766  0.48513921  0.56577140     0.29100
F587        F  0.10637418  0.51838190  0.55965001    -0.20300
H588        H  0.16001283  0.52757759  0.60735494     0.17500
H589        H  0.18211815  0.37179215  0.54025063     0.17500
F590        F  0.23402083  0.37961350  0.58786064    -0.20200
C591        C  0.01433912  0.28591359  0.49394160    -0.21700
C592        C  0.05391900  0.30438036  0.50486384    -0.09700
C593        C  0.08458430  0.26728701  0.01505208     0.29100
C594        C  0.07517117  0.21670226  0.01673310    -0.21700
C595        C  0.03736795  0.19986366  0.50529941    -0.09700
C596        C  0.00638572  0.23410751  0.49370197     0.29100
F597        F  0.96892783  0.21743334  0.48147193    -0.20300
H598        H  0.99053116  0.31091106  0.48386824     0.17500
H599        H  0.10068433  0.19095283  0.02368504     0.17500
F600        F  0.12574592  0.28089726  0.02158969    -0.20200
C601        C  0.56848789  0.35906088  0.00065647     0.86100
C602        C  0.59110083  0.37909778  0.03063705    -0.54100
C603        C  0.61070366  0.42377240  0.02583721     0.09000
C604        C  0.60440740  0.44580820  0.49114638     0.20000
C605        C  0.53510357  0.40124849  0.99349527    -0.54800
C606        C  0.55357767  0.44784325  0.98900114     0.09100
C607        C  0.60066978  0.35991321  0.47177544    -0.54400
C608        C  0.61931039  0.40481812  0.46563705     0.09700
H609        H  0.59384140  0.35817922  0.05335363     0.14200
H610        H  0.62169169  0.48132206  0.48697812     0.00000
H611        H  0.50050674  0.39463777  0.99248665     0.14500
H612        H  0.60661418  0.32756481  0.45550404     0.14300
C613        C  0.51525993  0.58467714  0.47092571     0.86100
C614        C  0.97779773  0.58170510  0.49722432    -0.54100
C615        C  0.95909336  0.53610838  0.50054011     0.09000
C616        C  0.97835177  0.49650777  0.47544047     0.20000
C617        C  0.54749758  0.54199233  0.47960405    -0.54800
C618        C  0.52903092  0.49524219  0.48187441     0.09100
C619        C  0.99364580  0.56567256  0.43838866    -0.54400
C620        C  0.97482178  0.52004843  0.44108070     0.09700
H621        H  0.96860947  0.61032506  0.01330307     0.14200
H622        H  0.96196706  0.46007208  0.47752499     0.00000
H623        H  0.58136939  0.54833414  0.48395144     0.14500
H624        H  0.99288432  0.58799770  0.41613924     0.14300
Zr625      Zr  0.78209533  0.53016514  0.18332955     2.17500
O626        O  0.73357355  0.59183316  0.15974642    -0.51700
O627        O  0.83467470  0.52716014  0.13530504    -0.74900
O628        O  0.80688683  0.61589340  0.19121082    -0.81700
O629        O  0.71917874  0.42380153  0.15051061    -0.83400
O630        O  0.83996312  0.62016789  0.23995394    -0.79100
O631        O  0.73354344  0.50572486  0.14103304    -0.90700
O632        O  0.88328050  0.46407512  0.14300221    -0.76700
O633        O  0.85085353  0.51894294  0.20697482    -0.86200
O634        O  0.80206002  0.44407869  0.17478046    -0.85800
O635        O  0.76827757  0.55126739  0.24110448    -0.72600
O636        O  0.72446659  0.48219539  0.21005513    -0.84700
Zr637      Zr  0.80254464  0.40460397  0.28386963     2.26400
Zr638      Zr  0.83732194  0.53779228  0.26471156     2.06300
Zr639      Zr  0.74612652  0.39646973  0.20264065     2.10000
Zr640      Zr  0.87052920  0.43313036  0.19848653     1.78800
O641        O  0.66828995  0.38088762  0.21239366    -0.93500
O642        O  0.94142498  0.47321295  0.19755186    -0.41300
O643        O  0.81530705  0.38405191  0.22609536    -0.78000
O644        O  0.86025135  0.45192286  0.25655948    -0.96700
O645        O  0.78119148  0.49017938  0.29247430    -0.90000
O646        O  0.73327115  0.41505893  0.26039089    -0.92800
C647        C  0.86729717  0.49862942  0.12542967     1.00900
C648        C  0.71706926  0.46376867  0.13334830     1.13900
C649        C  0.82601461  0.64019200  0.21373990     1.04700
O650        O  0.91374544  0.56171502  0.26170551    -0.95000
O651        O  0.87078503  0.51126897  0.31441202    -0.90700
O652        O  0.85255562  0.43085123  0.32561011    -0.83900
C653        C  0.87264900  0.47141300  0.33166237     1.11300
O654        O  0.66302513  0.56436896  0.24807786    -0.96900
Zr655      Zr  0.71304151  0.50108983  0.26791328     1.88900
O656        O  0.74946515  0.40646016  0.33120044    -0.73600
O657        O  0.81530426  0.59902889  0.30802233    -0.52900
O658        O  0.70019517  0.57043579  0.30714586    -0.97500
O659        O  0.63968689  0.46765477  0.26534366    -0.54700
O660        O  0.69842585  0.46639975  0.32201588    -0.74100
C661        C  0.71525556  0.43293507  0.34000014     0.98200
O662        O  0.83840085  0.33371752  0.30926812    -0.62900
O663        O  0.75342380  0.32941618  0.16120322    -0.57700
O664        O  0.78761578  0.31708573  0.27136784    -0.94400
O665        O  0.75453545  0.31178162  0.22269115    -0.92800
O666        O  0.88005808  0.35934771  0.16275437    -0.93200
O667        O  0.92656573  0.37408205  0.21477630    -0.92000
C668        C  0.77113006  0.29190393  0.24797776     1.17100
H669        H  0.80415984  0.43507137  0.15157194     0.33000
H670        H  0.88776727  0.44556802  0.26631667     0.43900
H671        H  0.71188528  0.39305826  0.27058307     0.37400
H672        H  0.75891118  0.58584424  0.24372130     0.33900
H673        H  0.95949346  0.45511332  0.17995030     0.25700
H674        H  0.84245734  0.61696317  0.31228204     0.31600
H675        H  0.71872199  0.56270799  0.32575717     0.37500
H676        H  0.85035149  0.35225972  0.15575450     0.32000
H677        H  0.72407637  0.32644878  0.15239664     0.30900
H678        H  0.65354116  0.40731863  0.19992563     0.32500
H679        H  0.62144685  0.48774464  0.28184622     0.31500
H680        H  0.91619943  0.36316820  0.23718644     0.35500
H681        H  0.87023368  0.33935684  0.30587513     0.28200
H682        H  0.75245569  0.61162544  0.14427124     0.32500
H683        H  0.65751141  0.55341664  0.22523645     0.35300
H684        H  0.77204329  0.34303382  0.14267570     0.27900
H685        H  0.83170095  0.33766541  0.33345234     0.40800
H686        H  0.93015505  0.53071366  0.25481606     0.30900
H687        H  0.93634052  0.50674502  0.18819552     0.38500
H688        H  0.64118410  0.43401637  0.27522376     0.30300
H689        H  0.79668671  0.62403533  0.29734093     0.30400
H690        H  0.72443822  0.61515151  0.17820357     0.30700
C691        C  0.82363956  0.08201950  0.24396778     0.86100
C692        C  0.85785595  0.08086613  0.21454472    -0.54100
C693        C  0.87935751  0.03621294  0.20966685     0.09000
C694        C  0.86683432  0.99669313  0.23569724     0.20000
C695        C  0.79458591  0.03668753  0.23773758    -0.54800
C696        C  0.81689726  0.99136797  0.23356300     0.09100
C697        C  0.85031010  0.06688828  0.27343206    -0.54400
C698        C  0.87318391  0.02287513  0.26915429     0.09700
H699        H  0.86326210  0.11197470  0.19782586     0.14200
H700        H  0.88661664  0.96178656  0.23209784     0.00000
H701        H  0.75957890  0.04136819  0.23624523     0.14500
H702        H  0.85426681  0.09014422  0.29509492     0.14300
C703        C  0.78861201  0.85224705  0.21347586     0.86100
C704        C  0.76503698  0.86889311  0.18290612    -0.54100
C705        C  0.74330796  0.91369954  0.18626124     0.09000
C706        C  0.74601333  0.93797941  0.22080465     0.20000
C707        C  0.81763237  0.89694126  0.22182266    -0.54800
C708        C  0.79551724  0.94244516  0.22561948     0.09100
C709        C  0.75203496  0.85306922  0.24118946    -0.54400
C710        C  0.73052280  0.89783471  0.24574576     0.09700
H711        H  0.76274986  0.84643400  0.16073390     0.14200
H712        H  0.72665121  0.97324366  0.22358363     0.00000
H713        H  0.85240387  0.89198785  0.22451629     0.14500
H714        H  0.74566630  0.82163462  0.25746276     0.14300
Zr715      Zr  0.56862280  0.02805268  0.03114413     2.17500
O716        O  0.61403466  0.08249959  0.06291707    -0.51700
O717        O  0.51309464  0.03026831  0.07675711    -0.74900
O718        O  0.55245599  0.11712219  0.02293495    -0.81700
O719        O  0.63778512  0.91724250  0.05712445    -0.83400
O720        O  0.51791971  0.12959839  0.47626799    -0.79100
O721        O  0.61514681  0.99587900  0.07313939    -0.90700
O722        O  0.95964980  0.97368904  0.06461636    -0.76700
O723        O  0.50078478  0.02474442  0.00535635    -0.86200
O724        O  0.54555497  0.94360805  0.03609828    -0.85800
O725        O  0.58577614  0.05197423  0.47443586    -0.72600
O726        O  0.62558552  0.97806089  0.50310836    -0.84700
Zr727      Zr  0.54675599  0.91130832  0.42621322     2.26400
Zr728      Zr  0.51705237  0.04766189  0.44896822     2.06300
Zr729      Zr  0.60136782  0.89241867  0.00784938     2.10000
Zr730      Zr  0.97758067  0.93944556  0.01018051     1.78800
O731        O  0.67541363  0.86071022  0.49779679    -0.93500
O732        O  0.90491123  0.97687227  0.00637359    -0.41300
O733        O  0.53249989  0.88985504  0.48301331    -0.78000
O734        O  0.99054082  0.96269199  0.45209133    -0.96700
O735        O  0.57147260  0.99481333  0.42062180    -0.90000
O736        O  0.61580915  0.91391892  0.45077805    -0.92800
C737        C  0.97656036  0.00455886  0.08433356     1.00900
C738        C  0.63729332  0.95531733  0.07684056     1.13900
C739        C  0.53435260  0.14496614  0.00159405     1.04700
O740        O  0.94156566  0.07568851  0.45229912    -0.95000
O741        O  0.98928916  0.02675145  0.39416203    -0.90700
O742        O  0.99720030  0.94302761  0.38497003    -0.83900
C743        C  0.98363492  0.98680597  0.37710366     1.11300
O744        O  0.69574135  0.05404533  0.46355135    -0.96900
Zr745      Zr  0.63923836  0.99819004  0.44592847     1.88900
O746        O  0.60200583  0.90724361  0.38060206    -0.73600
O747        O  0.54086656  0.10795319  0.40716124    -0.52900
O748        O  0.64543441  0.07030483  0.40964928    -0.97500
O749        O  0.71134732  0.95888099  0.44945176    -0.54700
O750        O  0.65360966  0.96404963  0.39084029    -0.74100
C751        C  0.63650976  0.93159731  0.37228660     0.98200
O752        O  0.01885211  0.84513120  0.38981668    -0.62900
O753        O  0.58702846  0.82985813  0.05051637    -0.57700
O754        O  0.54740246  0.82291919  0.44146843    -0.94400
O755        O  0.58814452  0.81119408  0.48608673    -0.91600
O756        O  0.96406619  0.86932310  0.04707045    -0.93200
O757        O  0.92725124  0.87929939  0.98884287    -0.92000
C758        C  0.56503418  0.79488515  0.46291495     1.17100
H759        H  0.54197781  0.93386777  0.05903096     0.33000
H760        H  0.96311326  0.95996828  0.44172576     0.43900
H761        H  0.63661383  0.89032689  0.44015639     0.37400
H762        H  0.59698983  0.08544914  0.47320625     0.33900
H763        H  0.88702839  0.96214322  0.02492245     0.25700
H764        H  0.51621186  0.13235462  0.40650345     0.31600
H765        H  0.66779336  0.06056071  0.39190730     0.37500
H766        H  0.99324850  0.85356570  0.04925071     0.32000
H767        H  0.61528259  0.81173668  0.05227286     0.30900
H768        H  0.67958907  0.83406755  0.01325317     0.32500
H769        H  0.70950046  0.92578975  0.43847237     0.31500
H770        H  0.93802329  0.87538178  0.46433971     0.35500
H771        H  0.98655263  0.84858312  0.39242184     0.28200
H772        H  0.59334391  0.10424153  0.07661393     0.32500
H773        H  0.71583644  0.05868610  0.44371689     0.35300
H774        H  0.58232796  0.84863182  0.07172867     0.27900
H775        H  0.02664684  0.85497065  0.36667379     0.40800
H776        H  0.94027719  0.10301930  0.43603748     0.30900
H777        H  0.90802009  0.01228079  0.01306533     0.38500
H778        H  0.71329922  0.95124724  0.47325120     0.30300
H779        H  0.56449274  0.12670034  0.41708237     0.30400
H780        H  0.62859699  0.10500225  0.04659572     0.30700
C781        C  0.67261404  0.87285016  0.28869888    -0.21700
C782        C  0.70240431  0.90843556  0.27622451    -0.09700
C783        C  0.70930739  0.95140887  0.29527854     0.29100
C784        C  0.68707354  0.95871160  0.32597247    -0.21700
C785        C  0.65798638  0.92294411  0.33892238    -0.09700
C786        C  0.65051386  0.87990060  0.31982310     0.29100
F787        F  0.62336336  0.84380199  0.33164426    -0.20300
H788        H  0.66728656  0.83899028  0.27467330     0.17500
H789        H  0.69356710  0.99225015  0.33997457     0.17500
F790        F  0.73999951  0.98481702  0.28568089    -0.20200
C791        C  0.67593979  0.95439906  0.16449631    -0.21700
C792        C  0.71835332  0.93380430  0.15866704    -0.09700
C793        C  0.73514995  0.92675896  0.12565111     0.29100
C794        C  0.70854527  0.93458548  0.09937847    -0.21700
C795        C  0.66538427  0.95208729  0.10516012    -0.09700
C796        C  0.64966762  0.96408895  0.13782517     0.29100
F797        F  0.60818416  0.98207572  0.14404955    -0.20300
H798        H  0.66235394  0.96051769  0.18962244     0.17500
H799        H  0.72163710  0.92655376  0.07432010     0.17500
F800        F  0.77719253  0.91107931  0.11873297    -0.20200
C801        C  0.93125838  0.95464083  0.33635789    -0.21700
C802        C  0.95949925  0.99210662  0.34654640    -0.09700
C803        C  0.96308891  0.03616388  0.32799734     0.29100
C804        C  0.93684851  0.04401266  0.30145745    -0.21700
C805        C  0.90632791  0.00837876  0.29277637    -0.09700
C806        C  0.90472842  0.96271145  0.30959999     0.29100
F807        F  0.87569425  0.92747511  0.30159368    -0.20300
H808        H  0.92822070  0.92018485  0.35006995     0.17500
H809        H  0.93920068  0.07903893  0.28829993     0.17500
F810        F  0.48989878  0.07457643  0.33799443    -0.20200
C811        C  0.94162318  0.05693893  0.16998255    -0.21700
C812        C  0.90677286  0.02570742  0.17913934    -0.09700
C813        C  0.89517763  0.98780083  0.15732655     0.29100
C814        C  0.91819780  0.98128362  0.12677003    -0.21700
C815        C  0.95322058  0.01249052  0.11723270    -0.09700
C816        C  0.96501463  0.05028125  0.13939455     0.29100
F817        F  0.50280376  0.08027527  0.13240879    -0.20300
H818        H  0.95035236  0.08688654  0.18645282     0.17500
H819        H  0.90807922  0.95188919  0.11041445     0.17500
F820        F  0.86008517  0.95881162  0.16465025    -0.20200
C821        C  0.83370698  0.72515095  0.23946520    -0.21700
C822        C  0.82896945  0.69562097  0.21088375    -0.09700
C823        C  0.82204271  0.72013540  0.18098976     0.29100
C824        C  0.81466696  0.77197991  0.18076255    -0.21700
C825        C  0.81191807  0.80052587  0.21055910    -0.09700
C826        C  0.82568827  0.77691599  0.23931497     0.29100
F827        F  0.82717976  0.80297697  0.26823327    -0.20300
H828        H  0.84041300  0.70780998  0.26276265     0.17500
H829        H  0.80952491  0.78848713  0.15708327     0.17500
F830        F  0.82044065  0.69392894  0.15212270    -0.20200
C831        C  0.79524395  0.16039808  0.27752982    -0.21700
C832        C  0.79931192  0.13308734  0.24730234    -0.09700
C833        C  0.78411153  0.15665037  0.21892830     0.29100
C834        C  0.77259383  0.20765934  0.21972428    -0.21700
C835        C  0.77430893  0.23622821  0.24905139    -0.09700
C836        C  0.78322150  0.21122121  0.27840315     0.29100
F837        F  0.78143063  0.23607717  0.30795328    -0.20300
H838        H  0.80198056  0.14337340  0.30078697     0.17500
H839        H  0.76462876  0.22531103  0.19679880     0.17500
F840        F  0.78345830  0.13134183  0.18965783    -0.20200
C841        C  0.91118148  0.47500695  0.41896536    -0.21700
C842        C  0.95195144  0.49779324  0.41324933    -0.09700
C843        C  0.96855469  0.50430884  0.38034097     0.29100
C844        C  0.94319326  0.49269294  0.35397838    -0.21700
C845        C  0.90124276  0.47333979  0.35965665    -0.09700
C846        C  0.88588389  0.46267678  0.39227665     0.29100
F847        F  0.84515842  0.44445349  0.39847580    -0.20300
H848        H  0.89767458  0.46974355  0.44405666     0.17500
H849        H  0.95575087  0.50056301  0.32895295     0.17500
F850        F  0.51162229  0.52561561  0.37348066    -0.20200
C851        C  0.94017674  0.47845241  0.04663185    -0.21700
C852        C  0.93027556  0.52105688  0.02851883    -0.09700
C853        C  0.89718189  0.55441853  0.04119882     0.29100
C854        C  0.87626342  0.54658656  0.07241953    -0.21700
C855        C  0.88786178  0.50529518  0.09151643    -0.09700
C856        C  0.91949458  0.47053804  0.07778540     0.29100
F857        F  0.93149681  0.42932371  0.09459882    -0.20300
H858        H  0.96575932  0.45245701  0.03753827     0.17500
H859        H  0.85166818  0.57354537  0.08191866     0.17500
F860        F  0.88559785  0.59501772  0.02362069    -0.20200
C861        C  0.57426305  0.65342850  0.47276693    -0.21700
C862        C  0.53110529  0.63874338  0.46758185    -0.09700
C863        C  0.99987834  0.67543220  0.45619055     0.29100
C864        C  0.01204708  0.72526219  0.45338252    -0.21700
C865        C  0.55516539  0.74081056  0.46241167    -0.09700
C866        C  0.58603905  0.70397285  0.47051179     0.29100
F867        F  0.62768489  0.71685100  0.47603058    -0.20300
H868        H  0.59905310  0.62656615  0.47902541     0.17500
H869        H  0.98783997  0.75283982  0.44668924     0.17500
F870        F  0.95799916  0.66388049  0.45029157    -0.20200
C871        C  0.66579209  0.46396502  0.38699532    -0.21700
C872        C  0.69344380  0.42566835  0.37317678    -0.09700
C873        C  0.69840895  0.38116343  0.39090233     0.29100
C874        C  0.67557164  0.37533582  0.42162452    -0.21700
C875        C  0.64707306  0.41338347  0.43496117    -0.09700
C876        C  0.64238432  0.45775129  0.41719600     0.29100
F877        F  0.61301920  0.49396221  0.42764155    -0.20300
H878        H  0.66129448  0.49869563  0.37397583     0.17500
H879        H  0.67958017  0.34059194  0.43471319     0.17500
F880        F  0.72379062  0.34262542  0.37809129    -0.20200
C881        C  0.66384107  0.49575282  0.09329975    -0.21700
C882        C  0.69483644  0.45964664  0.10226267    -0.09700
C883        C  0.70222829  0.41648107  0.08252937     0.29100
C884        C  0.67659876  0.40746583  0.05604913    -0.21700
C885        C  0.64290862  0.44098298  0.04885132    -0.09700
C886        C  0.63774403  0.48641904  0.06655930     0.29100
F887        F  0.60574277  0.51977551  0.05955480    -0.20300
H888        H  0.65811009  0.52950106  0.10811678     0.17500
H889        H  0.68155635  0.37279613  0.04206723     0.17500
F890        F  0.73333606  0.38203662  0.08958311    -0.20200
C891        C  0.51407795  0.28640764  0.99569780    -0.21700
C892        C  0.55436554  0.30464191  0.00543605    -0.09700
C893        C  0.58585969  0.26966391  0.51686335     0.29100
C894        C  0.57709819  0.21886923  0.51767960    -0.21700
C895        C  0.53769721  0.20010735  0.00589336    -0.09700
C896        C  0.50610521  0.23457206  0.99534857     0.29100
F897        F  0.46801010  0.21814881  0.98404517    -0.20300
H898        H  0.48965667  0.31153758  0.98656352     0.17500
H899        H  0.60306746  0.19311173  0.52380154     0.17500
F900        F  0.62721859  0.28354339  0.52262110    -0.20200
C901        C  0.56823211  0.35919813  0.50207464     0.86100
C902        C  0.59299634  0.37937556  0.53095322    -0.54100
C903        C  0.61302835  0.42351610  0.52502140     0.09000
C904        C  0.60375802  0.44670570  0.99195942     0.20000
C905        C  0.53497474  0.40194337  0.49553734    -0.54800
C906        C  0.55394787  0.44805229  0.48984452     0.09100
C907        C  0.60257093  0.36129216  0.97140991    -0.54400
C908        C  0.62078535  0.40688923  0.96630594     0.09700
H909        H  0.59660200  0.35896645  0.55377580     0.14200
H910        H  0.62069080  0.48263191  0.98921657     0.00000
H911        H  0.50014688  0.39602759  0.49568808     0.14500
H912        H  0.60952407  0.32944241  0.95490447     0.14300
C913        C  0.51430887  0.58384144  0.96989762     0.86100
C914        C  0.97739855  0.57952856  0.99629142    -0.54100
C915        C  0.95901794  0.53364875  0.99913497     0.09000
C916        C  0.97948130  0.49449750  0.97430510     0.20000
C917        C  0.54664059  0.54143175  0.97870012    -0.54800
C918        C  0.52843043  0.49463628  0.98098506     0.09100
C919        C  0.99583920  0.56406128  0.93773722    -0.54400
C920        C  0.97715902  0.51825250  0.93988691     0.09700
H921        H  0.96997165  0.61275747  0.51424512     0.14200
H922        H  0.96324914  0.45795182  0.97599208     0.00000
H923        H  0.58043828  0.54796778  0.98300247     0.14500
H924        H  0.99545601  0.58681747  0.91566935     0.14300
Zr925      Zr  0.78214005  0.53226341  0.68369199     2.17500
O926        O  0.73030898  0.59453307  0.66479814    -0.51700
O927        O  0.83357011  0.52975489  0.63555680    -0.74900
O928        O  0.80849070  0.61779363  0.69087460    -0.81700
O929        O  0.72036041  0.42484637  0.65026283    -0.83400
O930        O  0.84096022  0.62205560  0.73991557    -0.79100
O931        O  0.73685870  0.50601418  0.63960794    -0.90700
O932        O  0.88211224  0.46644400  0.64326721    -0.76700
O933        O  0.85115729  0.52139629  0.70718346    -0.86200
O934        O  0.80255431  0.44612897  0.67543642    -0.85800
O935        O  0.76888980  0.55375003  0.74117495    -0.72600
O936        O  0.72491781  0.48396497  0.71047831    -0.84700
Zr937      Zr  0.80265490  0.40708909  0.78414752     2.26400
Zr938      Zr  0.83778116  0.54020623  0.76482508     2.06300
Zr939      Zr  0.74683988  0.39805511  0.70298979     2.10000
Zr940      Zr  0.87115165  0.43568552  0.69902880     1.78800
O941        O  0.66956628  0.38020141  0.71356770    -0.93500
O942        O  0.94193954  0.47619764  0.69674072    -0.41300
O943        O  0.81598579  0.38636928  0.72653176    -0.78000
O944        O  0.86053564  0.45438877  0.75696550    -0.96700
O945        O  0.78188668  0.49262261  0.79274371    -0.90000
O946        O  0.73345515  0.41763743  0.76069004    -0.92800
C947        C  0.86588366  0.50091558  0.62569531     1.00900
C948        C  0.71968211  0.46421240  0.63232254     1.13900
C949        C  0.82745251  0.64203173  0.71359347     1.04700
O950        O  0.91368198  0.56601404  0.76455493    -0.95000
O951        O  0.87159150  0.51354539  0.81401962    -0.90700
O952        O  0.85157024  0.43402563  0.82607336    -0.83900
C953        C  0.87262185  0.47399952  0.83156377     1.11300
O954        O  0.66274441  0.56793839  0.75046309    -0.96900
Zr955      Zr  0.71385938  0.50409590  0.76831241     1.88900
O956        O  0.74848062  0.40915769  0.83079461    -0.73600
O957        O  0.81354866  0.60136305  0.80748729    -0.52900
O958        O  0.70889690  0.57498757  0.80688609    -0.97500
O959        O  0.63980223  0.47248946  0.76707410    -0.54700
O960        O  0.69990976  0.47240651  0.82323993    -0.74100
C961        C  0.71579739  0.43749282  0.84052397     0.98200
O962        O  0.83857412  0.33766430  0.81112514    -0.62900
O963        O  0.75424363  0.33106486  0.66145586    -0.57700
O964        O  0.79051577  0.31904421  0.77160985    -0.94400
O965        O  0.75892347  0.31314004  0.72239724    -0.92800
O966        O  0.88154080  0.35951145  0.66571099    -0.93200
O967        O  0.92938715  0.38112072  0.71720337    -0.92000
C968        C  0.77544779  0.29346023  0.74782502     1.17100
H969        H  0.80475180  0.43679822  0.65227433     0.33000
H970        H  0.88801371  0.44800145  0.76676623     0.43900
H971        H  0.71192354  0.39589088  0.77097504     0.37400
H972        H  0.75964922  0.58839321  0.74359186     0.33900
H973        H  0.95917987  0.45902593  0.67828826     0.25700
H974        H  0.83735139  0.62593641  0.80753940     0.31600
H975        H  0.68127445  0.57055803  0.82050925     0.37500
H976        H  0.85208384  0.34482630  0.66574719     0.32000
H977        H  0.72504114  0.32820416  0.65239328     0.30900
H978        H  0.66885108  0.34382074  0.71773657     0.32500
H979        H  0.64095288  0.43897755  0.77715196     0.31500
H980        H  0.91683236  0.36573530  0.73774692     0.35500
H981        H  0.87041247  0.34281309  0.80714013     0.28200
H982        H  0.74674727  0.61340021  0.64733712     0.32500
H983        H  0.63896997  0.57034098  0.76819503     0.35300
H984        H  0.77324093  0.34454651  0.64308466     0.27900
H985        H  0.83245511  0.34296117  0.83527228     0.40800
H986        H  0.92381725  0.56662388  0.74083502     0.30900
H987        H  0.93621498  0.51014107  0.68826837     0.38500
H988        H  0.63574940  0.46588083  0.74330689     0.30300
H989        H  0.78884425  0.61975509  0.79819137     0.30400
H990        H  0.72508255  0.61856511  0.68352201     0.30700
C991        C  0.82826970  0.08308240  0.74403357     0.86100
C992        C  0.86350582  0.08218036  0.71524190    -0.54100
C993        C  0.88482951  0.03738519  0.71032633     0.09000
C994        C  0.87085062  0.99740988  0.73573119     0.20000
C995        C  0.79900632  0.03836009  0.73682899    -0.54800
C996        C  0.82089528  0.99285814  0.73263731     0.09100
C997        C  0.85355978  0.06685491  0.77392294    -0.54400
C998        C  0.87627149  0.02282279  0.76959241     0.09700
H999        H  0.86943936  0.11351431  0.69879815     0.14200
H1000       H  0.89031584  0.96224547  0.73222760     0.00000
H1001       H  0.76408226  0.04347073  0.73510338     0.14500
H1002       H  0.85704102  0.08939061  0.79596163     0.14300
C1003       C  0.79047370  0.85413366  0.71357130     0.86100
C1004       C  0.76677906  0.87029944  0.68292487    -0.54100
C1005       C  0.74560454  0.91545699  0.68589481     0.09000
C1006       C  0.74906952  0.94068115  0.72016058     0.20000
C1007       C  0.82021739  0.89846270  0.72121473    -0.54800
C1008       C  0.79878696  0.94436272  0.72467508     0.09100
C1009       C  0.75410837  0.85627521  0.74148945    -0.54400
C1010       C  0.73323321  0.90148293  0.74561914     0.09700
H1011       H  0.76394170  0.84725957  0.66104593     0.14200
H1012       H  0.73014926  0.97626937  0.72273778     0.00000
H1013       H  0.85496089  0.89299708  0.72383782     0.14500
H1014       H  0.74726657  0.82540299  0.75814799     0.14300
Zr1015     Zr  0.56936449  0.02920940  0.53123966     2.17500
O1016       O  0.62219285  0.08182878  0.55723975    -0.51700
O1017       O  0.51386242  0.02982100  0.57734102    -0.74900
O1018       O  0.55155229  0.11789933  0.52441910    -0.81700
O1019       O  0.64075866  0.92129615  0.55563080    -0.83400
O1020       O  0.51749165  0.12821413  0.97538018    -0.79100
O1021       O  0.61407464  0.99705536  0.57441818    -0.90700
O1022       O  0.96178926  0.97493928  0.56410726    -0.76700
O1023       O  0.50124252  0.02691128  0.50583297    -0.86200
O1024       O  0.54551550  0.94523476  0.53592971    -0.85800
O1025       O  0.58543168  0.05136450  0.97453735    -0.72600
O1026       O  0.62572922  0.97667472  0.00402684    -0.84700
Zr1027     Zr  0.54889776  0.91034404  0.92556461     2.26400
Zr1028     Zr  0.51714099  0.04589840  0.94850366     2.06300
Zr1029     Zr  0.60130416  0.89424200  0.50806022     2.10000
Zr1030     Zr  0.97807987  0.94100289  0.50918064     1.78800
O1031       O  0.67507910  0.85860096  0.99555269    -0.93500
O1032       O  0.90556594  0.97894829  0.50558334    -0.41300
O1033       O  0.53320414  0.88828100  0.98212537    -0.78000
O1034       O  0.99053168  0.96131931  0.95320461    -0.96700
O1035       O  0.57297428  0.99430067  0.92072451    -0.90000
O1036       O  0.61732381  0.91347255  0.95101690    -0.92800
C1037       C  0.97912860  0.00601409  0.58353507     1.00900
C1038       C  0.63865987  0.95793387  0.57660090     1.13900
C1039       C  0.53400302  0.14589910  0.50292190     1.04700
O1040       O  0.94041914  0.07303483  0.94743941    -0.95000
O1041       O  0.99065744  0.02590385  0.89498693    -0.90700
O1042       O  0.99906235  0.94228054  0.88557845    -0.83900
C1043       C  0.98565943  0.98609173  0.87769732     1.11300
O1044       O  0.69260945  0.05592662  0.96845282    -0.96900
Zr1045     Zr  0.64006785  0.99822082  0.94720806     1.88900
O1046       O  0.60642536  0.90749746  0.88124808    -0.73600
O1047       O  0.53931849  0.10758079  0.90708121    -0.52900
O1048       O  0.65002169  0.07155451  0.91254606    -0.97500
O1049       O  0.71339454  0.96271120  0.95155651    -0.54700
O1050       O  0.65649552  0.96590073  0.89187603    -0.74100
C1051       C  0.64047720  0.93289564  0.87312858     0.98200
O1052       O  0.01832337  0.84354096  0.89262544    -0.62900
O1053       O  0.58554339  0.83666124  0.55351763    -0.57700
O1054       O  0.54848820  0.82171835  0.94050447    -0.94400
O1055       O  0.58748127  0.80967049  0.98593673    -0.91600
O1056       O  0.96444193  0.86922550  0.54462983    -0.93200
O1057       O  0.92749741  0.88114957  0.48775852    -0.92000
C1058       C  0.56510945  0.79351749  0.96232973     1.17100
H1059       H  0.54202922  0.93540336  0.55883664     0.33000
H1060       H  0.96334211  0.95816757  0.94255789     0.43900
H1061       H  0.63860354  0.89033982  0.94042056     0.37400
H1062       H  0.59646079  0.08489550  0.97315884     0.33900
H1063       H  0.88924130  0.96963746  0.52645356     0.25700
H1064       H  0.51400121  0.13109363  0.90650206     0.31600
H1065       H  0.67717154  0.06436388  0.89859777     0.37500
H1066       H  0.99377850  0.85796861  0.55087036     0.32000
H1067       H  0.58454483  0.85717609  0.57410644     0.30900
H1068       H  0.67770347  0.83340190  0.51398357     0.32500
H1069       H  0.72973474  0.97222866  0.93074388     0.31500
H1070       H  0.94219048  0.86650411  0.96793587     0.35500
H1071       H  0.98609521  0.84686890  0.89620358     0.28200
H1072       H  0.60521586  0.10938032  0.56882036     0.32500
H1073       H  0.67672256  0.07281535  0.98765644     0.35300
H1074       H  0.55477262  0.82711078  0.55130349     0.27900
H1075       H  0.02482410  0.85291351  0.86922340     0.40800
H1076       H  0.93190608  0.08445495  0.97034527     0.30900
H1077       H  0.91003630  0.01534272  0.50790995     0.38500
H1078       H  0.71011256  0.92610726  0.94948582     0.30300
H1079       H  0.56242569  0.12711458  0.91706962     0.30400
H1080       H  0.63878667  0.09783767  0.53855679     0.30700
C1081       C  0.67266215  0.87975792  0.78702281    -0.21700
C1082       C  0.70539030  0.91291417  0.77610438    -0.09700
C1083       C  0.71580624  0.95271188  0.79692671     0.29100
C1084       C  0.69459014  0.95860785  0.82823129    -0.21700
C1085       C  0.66236986  0.92505970  0.83964850    -0.09700
C1086       C  0.65116167  0.88569029  0.81844723     0.29100
F1087       F  0.62045316  0.85209049  0.82825703    -0.20300
H1088       H  0.66455178  0.84844622  0.77145883     0.17500
H1089       H  0.70402221  0.98940080  0.84372756     0.17500
F1090       F  0.74856145  0.98412184  0.78814871    -0.20200
C1091       C  0.67741804  0.95416281  0.66429677    -0.21700
C1092       C  0.72024160  0.93495725  0.65831219    -0.09700
C1093       C  0.73714253  0.92890653  0.62523501     0.29100
C1094       C  0.71058623  0.93765913  0.59894813    -0.21700
C1095       C  0.66711371  0.95431914  0.60485417    -0.09700
C1096       C  0.65108782  0.96432550  0.63773459     0.29100
F1097       F  0.60923156  0.98086222  0.64425066    -0.20300
H1098       H  0.66363352  0.95893556  0.68948543     0.17500
H1099       H  0.72390351  0.93083190  0.57380423     0.17500
F1100       F  0.77924121  0.91341677  0.61828629    -0.20200
C1101       C  0.93426709  0.95410886  0.83646213    -0.21700
C1102       C  0.96219520  0.99161716  0.84696243    -0.09700
C1103       C  0.96547067  0.03616594  0.82891878     0.29100
C1104       C  0.93930169  0.04424237  0.80240590    -0.21700
C1105       C  0.90917043  0.00837682  0.79332852    -0.09700
C1106       C  0.90765654  0.96251277  0.80985626     0.29100
F1107       F  0.87843817  0.92750249  0.80184881    -0.20300
H1108       H  0.93135692  0.91943088  0.84993894     0.17500
H1109       H  0.94135756  0.07959882  0.78961094     0.17500
F1110       F  0.49189286  0.07212909  0.83640947    -0.20200
C1111       C  0.94763984  0.05700727  0.67035208    -0.21700
C1112       C  0.91209194  0.02674153  0.67962625    -0.09700
C1113       C  0.89929937  0.98975381  0.65760636     0.29100
C1114       C  0.92124523  0.98357675  0.62661468    -0.21700
C1115       C  0.95677618  0.01386493  0.61686917    -0.09700
C1116       C  0.97027368  0.05033446  0.63938180     0.29100
F1117       F  0.50852228  0.07052334  0.63620064    -0.20300
H1118       H  0.95753163  0.08613371  0.68701174     0.17500
H1119       H  0.90990419  0.95507997  0.61011053     0.17500
F1120       F  0.86396560  0.96132309  0.66520410    -0.20200
C1121       C  0.83431314  0.72663489  0.73996282    -0.21700
C1122       C  0.83063449  0.69742408  0.71106392    -0.09700
C1123       C  0.82504617  0.72222390  0.68112552     0.29100
C1124       C  0.81710402  0.77397876  0.68107139    -0.21700
C1125       C  0.81331711  0.80218186  0.71099971    -0.09700
C1126       C  0.82637899  0.77840028  0.73990338     0.29100
F1127       F  0.82763347  0.80434678  0.76889530    -0.20300
H1128       H  0.84032718  0.70907968  0.76332621     0.17500
H1129       H  0.81279589  0.79087980  0.65737416     0.17500
F1130       F  0.82581997  0.69636214  0.65198655    -0.20200
C1131       C  0.80109719  0.16203589  0.77743603    -0.21700
C1132       C  0.80436023  0.13434756  0.74736716    -0.09700
C1133       C  0.78898132  0.15776185  0.71902659     0.29100
C1134       C  0.77735113  0.20878882  0.71976100    -0.21700
C1135       C  0.77983062  0.23774225  0.74887894    -0.09700
C1136       C  0.78996301  0.21304557  0.77812418     0.29100
F1137       F  0.79051113  0.23831595  0.80741753    -0.20300
H1138       H  0.80804873  0.14538597  0.80074319     0.17500
H1139       H  0.76867939  0.22615957  0.69691897     0.17500
F1140       F  0.78825841  0.13222786  0.68984168    -0.20200
C1141       C  0.91398736  0.47259897  0.91776122    -0.21700
C1142       C  0.95417013  0.49668033  0.91191657    -0.09700
C1143       C  0.96959265  0.50542973  0.87897421     0.29100
C1144       C  0.94331281  0.49540869  0.85296699    -0.21700
C1145       C  0.90179467  0.47520241  0.85899731    -0.09700
C1146       C  0.88787878  0.46163158  0.89136483     0.29100
F1147       F  0.84777981  0.44181467  0.89775162    -0.20300
H1148       H  0.90141143  0.46532800  0.94283340     0.17500
H1149       H  0.95488130  0.50500205  0.82798903     0.17500
F1150       F  0.50912580  0.52685207  0.87198586    -0.20200
C1151       C  0.93722807  0.47984448  0.54672746    -0.21700
C1152       C  0.92999173  0.52435624  0.52983215    -0.09700
C1153       C  0.89868589  0.55936729  0.54328770     0.29100
C1154       C  0.87688342  0.55087163  0.57400970    -0.21700
C1155       C  0.88603434  0.50753865  0.59187762    -0.09700
C1156       C  0.91552110  0.47126345  0.57735523     0.29100
F1157       F  0.92426211  0.42777809  0.59289286    -0.20300
H1158       H  0.96139562  0.45254596  0.53708139     0.17500
H1159       H  0.85382949  0.57902110  0.58422629     0.17500
F1160       F  0.88976067  0.60223052  0.52710817    -0.20200
C1161       C  0.57259235  0.65247944  0.97400742    -0.21700
C1162       C  0.53020674  0.63775690  0.96664687    -0.09700
C1163       C  0.00122553  0.67413870  0.95633737     0.29100
C1164       C  0.01358611  0.72400688  0.95372617    -0.21700
C1165       C  0.55495569  0.73952493  0.96177925    -0.09700
C1166       C  0.58463578  0.70282627  0.97202679     0.29100
F1167       F  0.62533380  0.71561301  0.98022234    -0.20300
H1168       H  0.59649209  0.62594473  0.98212941     0.17500
H1169       H  0.98963070  0.75163258  0.94668566     0.17500
F1170       F  0.95948119  0.66272108  0.94996432    -0.20200
C1171       C  0.67001647  0.46973058  0.88937779    -0.21700
C1172       C  0.69483873  0.43032856  0.87397334    -0.09700
C1173       C  0.69826031  0.38467599  0.89054193     0.29100
C1174       C  0.67623888  0.37845660  0.92146488    -0.21700
C1175       C  0.64954841  0.41708110  0.93618944    -0.09700
C1176       C  0.64733593  0.46326938  0.91992520     0.29100
F1177       F  0.62120828  0.50144509  0.93206545    -0.20300
H1178       H  0.66717174  0.50554947  0.87734914     0.17500
H1179       H  0.67924793  0.34268796  0.93346700     0.17500
F1180       F  0.72114197  0.34527522  0.87630174    -0.20200
C1181       C  0.66609320  0.49541841  0.59241588    -0.21700
C1182       C  0.69784490  0.45993428  0.60096994    -0.09700
C1183       C  0.70589540  0.41730050  0.58079224     0.29100
C1184       C  0.68027998  0.40831274  0.55417389    -0.21700
C1185       C  0.64590949  0.44126287  0.54738674    -0.09700
C1186       C  0.63991135  0.48599812  0.56574399     0.29100
F1187       F  0.60672734  0.51830599  0.55963343    -0.20300
H1188       H  0.65967048  0.52861731  0.60765938     0.17500
H1189       H  0.68559021  0.37394098  0.53991329     0.17500
F1190       F  0.73750803  0.38331824  0.58759121    -0.20200
C1191       C  0.51293417  0.28725896  0.49933805    -0.21700
C1192       C  0.55391179  0.30515638  0.50776201    -0.09700
C1193       C  0.58559631  0.26938140  0.01595058     0.29100
C1194       C  0.57668532  0.21856924  0.01713270    -0.21700
C1195       C  0.53739118  0.20080158  0.50760241    -0.09700
C1196       C  0.50506141  0.23543916  0.49854128     0.29100
F1197       F  0.46647018  0.21919850  0.48803598    -0.20300
H1198       H  0.48794315  0.31266396  0.49133039     0.17500
H1199       H  0.60209440  0.19307387  0.02459163     0.17500
F1200       F  0.62637327  0.28350939  0.02317067    -0.20200
loop_ 
_geom_bond_atom_site_label_1 
_geom_bond_atom_site_label_2 
_geom_bond_distance 
_geom_bond_site_symmetry_2 
_ccdc_geom_bond_type 
C1            C2   1.527       .  S
C1            C5   1.550   1_554  S
C1          C307   1.531   1_554  S
C1          C292   1.537       .  S
C2            H9   1.087       .  S
C2            C3   1.357       .  D
C3          C304   1.535   1_554  S
C3          C285   1.477       .  S
C4            C8   1.540       .  S
C4          C303   1.535       .  S
C4          C306   1.550       .  S
C4           H10   1.105       .  S
C5           H11   1.080   1_455  S
C5            C6   1.388       .  D
C6          C304   1.550       .  S
C6          C318   1.509       .  S
C7          C301   1.528       .  S
C7           H12   1.087       .  S
C7            C8   1.360       .  D
C8          C275   1.484       .  S
C13          C17   1.551       .  S
C13         C614   1.526   1_455  S
C13         C619   1.527   1_455  S
C13         C262   1.534       .  S
C14         C613   1.530       .  S
C14         H321   1.087       .  S
C14          C15   1.362       .  D
C15          C16   1.540       .  S
C15         C552   1.477       .  S
C16          C20   1.539       .  S
C16         C618   1.545       .  S
C16          H22   1.106       .  S
C17          H23   1.077       .  S
C17          C18   1.383       .  D
C18         C616   1.545   1_455  S
C18         C306   1.511       .  S
C19         C613   1.530       .  S
C19          H24   1.086       .  S
C19          C20   1.364       .  D
C20         C242   1.489       .  S
H21         C314   1.086   1_554  S
Zr25         O26   2.439       .  S
Zr25         O27   2.425       .  S
Zr25         O28   2.457       .  S
Zr25         O31   2.431       .  S
Zr25         O33   2.382       .  S
Zr25         O34   2.389       .  S
Zr25         O35   2.400       .  S
Zr25         O36   2.408       .  S
O26          H82   0.990       .  S
O26          H90   0.991       .  S
O27          C47   1.283       .  A
O28          C49   1.289       .  A
O29         Zr39   2.425       .  S
O29          C48   1.284       .  A
O30         Zr38   2.429       .  S
O30          C49   1.284       .  A
O31          C48   1.284       .  A
O32         Zr40   2.412       .  S
O32          C47   1.280       .  A
O33         Zr38   2.392       .  S
O33         Zr40   2.377       .  S
O34         Zr39   2.385       .  S
O34         Zr40   2.371       .  S
O34          H69   0.964       .  S
O35         Zr38   2.395       .  S
O35         Zr55   2.390       .  S
O35          H72   0.966       .  S
O36         Zr39   2.389       .  S
O36         Zr55   2.390       .  S
Zr37         O62   2.442       .  S
Zr37         O56   2.429       .  S
Zr37         O64   2.460       .  S
Zr37         O52   2.457       .  S
Zr37         O43   2.395       .  S
Zr37         O44   2.410       .  S
Zr37         O45   2.384       .  S
Zr37         O46   2.391       .  S
Zr38         O57   2.436       .  S
Zr38         O50   2.435       .  S
Zr38         O51   2.417       .  S
Zr38         O44   2.405       .  S
Zr38         O45   2.388       .  S
Zr39         O41   2.435       .  S
Zr39         O63   2.439       .  S
Zr39         O65   2.425       .  S
Zr39         O43   2.392       .  S
Zr39         O46   2.389       .  S
Zr40         O66   2.435       .  S
Zr40         O67   2.437       .  S
Zr40         O42   2.437       .  S
Zr40         O43   2.389       .  S
Zr40         O44   2.390       .  S
O41          H78   0.990       .  S
O42          H73   0.990       .  S
O42          H87   0.990       .  S
O44          H70   0.964       .  S
O45         Zr55   2.379       .  S
O46         Zr55   2.388       .  S
O46          H71   0.965       .  S
C47         C255   1.480       .  S
C48         C282   1.473       .  S
C49         C222   1.495       .  S
O50          H86   0.990       .  S
O51          C53   1.282       .  A
O52          C53   1.286       .  A
C53         C245   1.477       .  S
O54         Zr55   2.440       .  S
O54          H83   0.990       .  S
Zr55         O58   2.438       .  S
Zr55         O59   2.439       .  S
Zr55         O60   2.403       .  S
O56          C61   1.283       .  A
O57          H74   0.990       .  S
O57          H89   0.990       .  S
O58          H75   0.990       .  S
O59          H79   0.990       .  S
O59          H88   0.990       .  S
O60          C61   1.280       .  A
C61         C272   1.476       .  S
O62          H81   0.991       .  S
O62          H85   0.990       .  S
O63          H77   0.990       .  S
O63          H84   0.990       .  S
O64          C68   1.290       .  A
O65          C68   1.283       .  A
O66          H76   0.990       .  S
O67          H80   0.990       .  S
C68         C235   1.495       .  S
C91          C92   1.537       .  S
C91          C97   1.536       .  S
C91          C95   1.541       .  S
C91         C232   1.544       .  S
C92          H99   1.086       .  S
C92          C93   1.362       .  D
C93          C94   1.537   1_545  S
C93         C212   1.472       .  S
C94          C98   1.539   1_565  S
C94          C96   1.546       .  S
C94         H100   1.107       .  S
C95         H101   1.081       .  S
C95          C96   1.383   1_545  D
C96         C108   1.511       .  S
C97         H102   1.082       .  S
C97          C98   1.361       .  D
C98         C205   1.483       .  S
C103        C104   1.535       .  S
C103        C109   1.535       .  S
C103        C107   1.550       .  S
C103        C225   1.546       .  S
C104        H111   1.079       .  S
C104        C105   1.358       .  D
C105        C106   1.538       .  S
C105        C192   1.485       .  S
C106        C110   1.541       .  S
C106        C108   1.545       .  S
C106        H112   1.105       .  S
C107        H113   1.082       .  S
C107        C108   1.385       .  D
C109        H114   1.086       .  S
C109        C110   1.363       .  D
C110        C182   1.484       .  S
Zr115       O116   2.441       .  S
Zr115       O117   2.436       .  S
Zr115       O118   2.447       .  S
Zr115       O121   2.429   1_545  S
Zr115       O123   2.384   1_455  S
Zr115       O124   2.383   1_545  S
Zr115       O425   2.404   1_554  S
Zr115       O426   2.406   1_545  S
O116        H172   0.991       .  S
O116        H180   0.990       .  S
O117        C737   1.284   1_455  A
O118        C139   1.288       .  A
O119       Zr129   2.443       .  S
O119        C138   1.287       .  A
O120       Zr128   2.436       .  S
O120        C439   1.284       .  A
O121        C138   1.283       .  A
O122       Zr130   2.411       .  S
O122        C137   1.281   1_565  A
O123       Zr428   2.398   1_654  S
O123       Zr730   2.381   1_545  S
O124       Zr129   2.395       .  S
O124       Zr730   2.381   1_455  S
O124        H159   0.965       .  S
O125       Zr128   2.397       .  S
O125       Zr145   2.392   1_545  S
O125       Zr415   2.402       .  S
O125        H162   0.965       .  S
O126       Zr145   2.390       .  S
O126       Zr415   2.406   1_565  S
O126       Zr429   2.386       .  S
Zr127       O752   2.442       .  S
Zr127       O146   2.435       .  S
Zr127       O154   2.446       .  S
Zr127       O742   2.448   1_455  S
Zr127       O133   2.392       .  S
Zr127       O135   2.378       .  S
Zr127       O136   2.392       .  S
Zr127       O734   2.412   1_455  S
Zr128       O147   2.438       .  S
Zr128       O740   2.434   1_455  S
Zr128       O741   2.429   1_455  S
Zr128       O135   2.393   1_545  S
Zr128       O423   2.394       .  S
Zr128       O734   2.401   1_445  S
Zr129       O153   2.438       .  S
Zr129       O431   2.435   1_554  S
Zr129       O455   2.436   1_554  S
Zr129       O426   2.387       .  S
Zr129       O433   2.390   1_554  S
Zr129       O436   2.397   1_554  S
Zr130       O156   2.436       .  S
Zr130       O157   2.435   1_554  S
Zr130       O132   2.437       .  S
Zr130       O723   2.378   1_565  S
Zr130       O724   2.376       .  S
Zr130      O1033   2.381   1_554  S
Zr130       O434   2.398   1_554  S
O131       Zr429   2.436       .  S
O131        H468   0.990       .  S
O132        H163   0.990       .  S
O132        H177   0.990   1_565  S
O133       Zr429   2.391       .  S
O133      Zr1030   2.378   1_455  S
O134       Zr727   2.406       .  S
O134       Zr728   2.402   1_565  S
O134       Zr430   2.384       .  S
O134        H160   0.964       .  S
O135       Zr145   2.376       .  S
O136       Zr145   2.384       .  S
O136       Zr429   2.397       .  S
O136        H161   0.966       .  S
C137        O717   1.282       .  A
C137        C215   1.483       .  S
C138        C195   1.476       .  S
C139        O420   1.284   1_554  A
C139        C295   1.486       .  S
O140       Zr728   2.434       .  S
O140        H176   0.990       .  S
O141       Zr728   2.427       .  S
O141        C143   1.285   1_545  A
O142       Zr727   2.449       .  S
O142        C143   1.285       .  A
C143        C202   1.482       .  S
O144       Zr145   2.438   1_545  S
O144        H173   0.991       .  S
Zr145       O148   2.436   1_565  S
Zr145       O149   2.441       .  S
Zr145       O150   2.399       .  S
O146        C151   1.283       .  A
O147        H164   0.990       .  S
O147        H179   0.990       .  S
O148        H165   0.990       .  S
O149        H169   0.990       .  S
O149        H178   0.990       .  S
O150        C151   1.278       .  A
C151        C185   1.477       .  S
O152       Zr727   2.439       .  S
O152        H171   0.990       .  S
O152        H175   0.990       .  S
O153        H167   0.990       .  S
O153        H174   0.990       .  S
O154        C158   1.288       .  A
O155       Zr429   2.433       .  S
O155        C158   1.285       .  A
O156        H166   0.990       .  S
O157        H470   0.990       .  S
C158        C265   1.481       .  S
H168        O431   0.990   1_554  S
H170        O457   0.990       .  S
C181        C182   1.407       .  A
C181        C186   1.400       .  A
C181        H188   1.083       .  S
C182        C183   1.405       .  A
C183        C184   1.390       .  A
C183        F190   1.352       .  S
C184        C185   1.404       .  A
C184        H189   1.084       .  S
C185        C186   1.406       .  A
C186        F187   1.357       .  S
C191        C192   1.403       .  A
C191        C196   1.404       .  A
C191        H198   1.083       .  S
C192        C193   1.410       .  A
C193        C194   1.395       .  A
C193        F200   1.358       .  S
C194        C195   1.400       .  A
C194        H199   1.084       .  S
C195        C196   1.408       .  A
C196        F197   1.357       .  S
C201        C202   1.410       .  A
C201        C206   1.407       .  A
C201        H208   1.083       .  S
C202        C203   1.405   1_565  A
C203        C204   1.392       .  A
C203        F810   1.358       .  S
C204        C205   1.404       .  A
C204        H209   1.084       .  S
C205        C206   1.404   1_545  A
C206        F207   1.357       .  S
F210        C803   1.358       .  S
C211        C212   1.402       .  A
C211        C216   1.400       .  A
C211        H218   1.083       .  S
C212        C213   1.401   1_545  A
C213        C214   1.391       .  A
C213        F220   1.355       .  S
C214        C215   1.407   1_565  A
C214        H219   1.083       .  S
C215        C216   1.412       .  A
C216        F817   1.357       .  S
F217        C816   1.357       .  S
C221        C222   1.410       .  A
C221        C226   1.404       .  A
C221        H228   1.083       .  S
C222        C223   1.406       .  A
C223        C224   1.400       .  A
C223        F230   1.358       .  S
C224        C225   1.416       .  A
C224        H229   1.075       .  S
C225        C226   1.411       .  A
C226        F227   1.357       .  S
C231        C232   1.414       .  A
C231        C236   1.400       .  A
C231        H238   1.077       .  S
C232        C233   1.412       .  A
C233        C234   1.404       .  A
C233        F240   1.358       .  S
C234        C235   1.410       .  A
C234        H239   1.083       .  S
C235        C236   1.405       .  A
C236        F237   1.357       .  S
C241        C242   1.408       .  A
C241        C246   1.406       .  A
C241        H248   1.083       .  S
C242        C243   1.408       .  A
C243        C244   1.393       .  A
C243        F850   1.358       .  S
C244        C245   1.402       .  A
C244        H249   1.084       .  S
C245        C246   1.407       .  A
C246        F247   1.357       .  S
F250        C843   1.358   1_455  S
C251        C252   1.400       .  A
C251        C256   1.393       .  A
C251        H258   1.082       .  S
C252        C315   1.477   1_554  S
C252        C253   1.406       .  A
C253        C254   1.396       .  A
C253        F260   1.357       .  S
C254        C255   1.406       .  A
C254        H259   1.083       .  S
C255        C256   1.412       .  A
C256        F257   1.358       .  S
C261        C262   1.410       .  A
C261        C266   1.405       .  A
C261        H268   1.078       .  S
C262        C863   1.417   1_455  A
C263        C264   1.395       .  A
C263        C862   1.416       .  A
C263        F270   1.358       .  S
C264        C865   1.400       .  A
C264        H269   1.084       .  S
C265        C266   1.407       .  A
C265        C864   1.400       .  A
C266        F267   1.357       .  S
C271        C272   1.405       .  A
C271        C276   1.392       .  A
C271        H278   1.083       .  S
C272        C273   1.406       .  A
C273        C274   1.397       .  A
C273        F280   1.358       .  S
C274        C275   1.408       .  A
C274        H279   1.083       .  S
C275        C276   1.405       .  A
C276        F277   1.354       .  S
C281        C282   1.407       .  A
C281        C286   1.406       .  A
C281        H288   1.083       .  S
C282        C283   1.404       .  A
C283        C284   1.389       .  A
C283        F290   1.358       .  S
C284        C285   1.402       .  A
C284        H289   1.084       .  S
C285        C286   1.404       .  A
C286        F287   1.357       .  S
C291        C292   1.412   1_556  A
C291        C296   1.413       .  A
C291        H298   1.080   1_455  S
C292        C593   1.417       .  A
C293        C294   1.392       .  A
C293        C592   1.419       .  A
C293        F300   1.358       .  S
C294        C595   1.398       .  A
C294        H299   1.084       .  S
C295        C296   1.410   1_554  A
C295        C594   1.398       .  A
C296        F297   1.357   1_455  S
C301        C302   1.529       .  S
C301        C305   1.553       .  S
C301        C592   1.537       .  S
C302        H309   1.087       .  S
C302        C303   1.358       .  D
C303        C585   1.478       .  S
C304        C308   1.540       .  S
C304        H310   1.104       .  S
C305        H311   1.081   1_455  S
C305        C306   1.389       .  D
C307        H312   1.086       .  S
C307        C308   1.364       .  D
C308        C575   1.490       .  S
C313        C914   1.530   1_455  S
C313        C919   1.527   1_455  S
C313        C317   1.552       .  S
C313        C562   1.538       .  S
C314        C913   1.527       .  S
C314        C315   1.362       .  D
C315        C316   1.540       .  S
C316        C320   1.541       .  S
C316        C918   1.542       .  S
C316        H322   1.106       .  S
C317        H323   1.077       .  S
C317        C318   1.383       .  D
C318        C916   1.543   1_455  S
C319        C913   1.527       .  S
C319        H324   1.085       .  S
C319        C320   1.364       .  D
C320        C542   1.486       .  S
Zr325       O326   2.439       .  S
Zr325       O327   2.426       .  S
Zr325       O328   2.458       .  S
Zr325       O331   2.432       .  S
Zr325       O333   2.383       .  S
Zr325       O334   2.387       .  S
Zr325       O335   2.400       .  S
Zr325       O336   2.406       .  S
O326        H382   0.990       .  S
O326        H390   0.991       .  S
O327        C347   1.283       .  A
O328        C349   1.290       .  A
O329       Zr339   2.432       .  S
O329        C348   1.286       .  A
O330       Zr338   2.412       .  S
O330        C349   1.281       .  A
O331        C348   1.284       .  A
O332       Zr340   2.414       .  S
O332        C347   1.281       .  A
O333       Zr338   2.390       .  S
O333       Zr340   2.379       .  S
O334       Zr339   2.383       .  S
O334       Zr340   2.371       .  S
O334        H369   0.963       .  S
O335       Zr338   2.397       .  S
O335       Zr355   2.388       .  S
O335        H372   0.966       .  S
O336       Zr339   2.391       .  S
O336       Zr355   2.391       .  S
Zr337       O362   2.440       .  S
Zr337       O356   2.434       .  S
Zr337       O364   2.455       .  S
Zr337       O352   2.449       .  S
Zr337       O343   2.397       .  S
Zr337       O344   2.413       .  S
Zr337       O345   2.383       .  S
Zr337       O346   2.387       .  S
Zr338       O357   2.439       .  S
Zr338       O350   2.434       .  S
Zr338       O351   2.409       .  S
Zr338       O344   2.394       .  S
Zr338       O345   2.388       .  S
Zr339       O341   2.435       .  S
Zr339       O363   2.439       .  S
Zr339       O365   2.427       .  S
Zr339       O343   2.390       .  S
Zr339       O346   2.390       .  S
Zr340       O366   2.433       .  S
Zr340       O367   2.437       .  S
Zr340       O342   2.438       .  S
Zr340       O343   2.391       .  S
Zr340       O344   2.393       .  S
O341        H378   0.990       .  S
O342        H373   0.991       .  S
O342        H387   0.990       .  S
O344        H370   0.964       .  S
O345       Zr355   2.378       .  S
O346       Zr355   2.388       .  S
O346        H371   0.965       .  S
C347        C555   1.479       .  S
C348        C582   1.474       .  S
C349        C522   1.488       .  S
O350        H386   0.990       .  S
O351        C353   1.281       .  A
O352        C353   1.285       .  A
C353        C545   1.469       .  S
O354       Zr355   2.441       .  S
O354        H383   0.990       .  S
Zr355       O358   2.437       .  S
Zr355       O359   2.440       .  S
Zr355       O360   2.409       .  S
O356        C361   1.284       .  A
O357        H374   0.991       .  S
O357        H389   0.990       .  S
O358        H375   0.990       .  S
O359        H379   0.989       .  S
O359        H388   0.990       .  S
O360        C361   1.281       .  A
C361        C572   1.477       .  S
O362        H381   0.990       .  S
O362        H385   0.990       .  S
O363        H377   0.990       .  S
O363        H384   0.990       .  S
O364        C368   1.289       .  A
O365        C368   1.284       .  A
O366        H376   0.989       .  S
O367        H380   0.990       .  S
C368        C535   1.495       .  S
C391        C392   1.538       .  S
C391        C397   1.537       .  S
C391        C395   1.542       .  S
C391        C532   1.545       .  S
C392        H399   1.086       .  S
C392        C393   1.361       .  D
C393        C394   1.535   1_545  S
C393        C512   1.469       .  S
C394        C398   1.541   1_565  S
C394        C396   1.546       .  S
C394        H400   1.107       .  S
C395        H401   1.082       .  S
C395        C396   1.382   1_545  D
C396        C408   1.511       .  S
C397        H402   1.082       .  S
C397        C398   1.362       .  D
C398        C505   1.486       .  S
C403        C404   1.532       .  S
C403        C409   1.536       .  S
C403        C407   1.547       .  S
C403        C525   1.539       .  S
C404        H411   1.080       .  S
C404        C405   1.361       .  D
C405        C406   1.544       .  S
C405        C492   1.489       .  S
C406        C410   1.540       .  S
C406        C408   1.546       .  S
C406        H412   1.105       .  S
C407        H413   1.082       .  S
C407        C408   1.382       .  D
C409        H414   1.087       .  S
C409        C410   1.360       .  D
C410        C482   1.480       .  S
Zr415       O416   2.440       .  S
Zr415       O417   2.436       .  S
Zr415       O418   2.449       .  S
Zr415       O421   2.429   1_545  S
Zr415       O423   2.382       .  S
Zr415       O424   2.385   1_545  S
O416        H472   0.991       .  S
O416        H480   0.990       .  S
O417       C1037   1.285   1_455  A
O418        C439   1.288       .  A
O419       Zr429   2.442       .  S
O419        C438   1.287       .  A
O420       Zr428   2.439       .  S
O421        C438   1.283       .  A
O422       Zr430   2.390       .  S
O422        C437   1.278   1_565  A
O423      Zr1030   2.382   1_445  S
O424       Zr429   2.389       .  S
O424      Zr1030   2.381   1_455  S
O424        H459   0.965       .  S
O425       Zr428   2.396       .  S
O425       Zr445   2.391   1_545  S
O425        H462   0.966       .  S
O426       Zr445   2.390   1_554  S
Zr427      O1052   2.441       .  S
Zr427       O446   2.436       .  S
Zr427       O454   2.453       .  S
Zr427      O1042   2.443   1_455  S
Zr427       O433   2.390       .  S
Zr427      O1034   2.413   1_455  S
Zr427       O435   2.380       .  S
Zr427       O436   2.391       .  S
Zr428       O447   2.438       .  S
Zr428      O1040   2.435   1_455  S
Zr428      O1041   2.422   1_455  S
Zr428      O1034   2.402   1_445  S
Zr428       O435   2.389   1_545  S
Zr429       O453   2.440       .  S
Zr430       O456   2.434       .  S
Zr430       O457   2.436       .  S
Zr430       O432   2.438       .  S
Zr430      O1023   2.377   1_565  S
Zr430      O1024   2.383       .  S
Zr430       O733   2.380       .  S
O432        H463   0.990       .  S
O432        H477   0.990   1_565  S
O433       Zr730   2.381   1_456  S
O434      Zr1027   2.412       .  S
O434      Zr1028   2.403   1_565  S
O434        H460   0.964       .  S
O435       Zr445   2.374       .  S
O436       Zr445   2.386       .  S
O436        H461   0.967       .  S
C437       O1017   1.287       .  A
C437        C515   1.481       .  S
C438        C495   1.477       .  S
C439        C595   1.486       .  S
O440      Zr1028   2.434       .  S
O440        H476   0.990       .  S
O441      Zr1028   2.434       .  S
O441        C443   1.286   1_545  A
O442      Zr1027   2.450       .  S
O442        C443   1.285       .  A
C443        C502   1.486       .  S
O444       Zr445   2.439   1_545  S
O444        H473   0.990       .  S
Zr445       O448   2.437   1_565  S
Zr445       O449   2.437       .  S
Zr445       O450   2.413       .  S
O446        C451   1.283       .  A
O447        H464   0.990       .  S
O447        H479   0.990       .  S
O448        H465   0.990       .  S
O449        H469   0.990       .  S
O449        H478   0.990       .  S
O450        C451   1.281       .  A
C451        C485   1.486       .  S
O452      Zr1027   2.441       .  S
O452        H471   0.991       .  S
O452        H475   0.990       .  S
O453        H467   0.990       .  S
O453        H474   0.990       .  S
O454        C458   1.289       .  A
O455        C458   1.285       .  A
O456        H466   0.990       .  S
C458        C565   1.486       .  S
C481        C482   1.404       .  A
C481        C486   1.401       .  A
C481        H488   1.083       .  S
C482        C483   1.403       .  A
C483        C484   1.393       .  A
C483        F490   1.353       .  S
C484        C485   1.406       .  A
C484        H489   1.083       .  S
C485        C486   1.411       .  A
C486        F487   1.357       .  S
C491        C492   1.405       .  A
C491        C496   1.406       .  A
C491        H498   1.083       .  S
C492        C493   1.411       .  A
C493        C494   1.393       .  A
C493        F500   1.358       .  S
C494        C495   1.400       .  A
C494        H499   1.084       .  S
C495        C496   1.409       .  A
C496        F497   1.357       .  S
C501        C502   1.411       .  A
C501        C506   1.409       .  A
C501        H508   1.083       .  S
C502        C503   1.406   1_565  A
C503        C504   1.394       .  A
C503       F1110   1.358       .  S
C504        C505   1.404       .  A
C504        H509   1.084       .  S
C505        C506   1.405   1_545  A
C506        F507   1.357       .  S
F510       C1103   1.358       .  S
C511        C512   1.401       .  A
C511        C516   1.399       .  A
C511        H518   1.083       .  S
C512        C513   1.400   1_545  A
C513        C514   1.390       .  A
C513        F520   1.357       .  S
C514        C515   1.410   1_565  A
C514        H519   1.083       .  S
C515        C516   1.409       .  A
C516       F1117   1.357       .  S
F517       C1116   1.357   1_455  S
C521        C522   1.409       .  A
C521        C526   1.399       .  A
C521        H528   1.083       .  S
C522        C523   1.404       .  A
C523        C524   1.400       .  A
C523        F530   1.358       .  S
C524        C525   1.415       .  A
C524        H529   1.077       .  S
C525        C526   1.410       .  A
C526        F527   1.358       .  S
C531        C532   1.414       .  A
C531        C536   1.402       .  A
C531        H538   1.078       .  S
C532        C533   1.412       .  A
C533        C534   1.404       .  A
C533        F540   1.358       .  S
C534        C535   1.409       .  A
C534        H539   1.083       .  S
C535        C536   1.406       .  A
C536        F537   1.358       .  S
C541        C542   1.407       .  A
C541        C546   1.403       .  A
C541        H548   1.082       .  S
C542        C543   1.409       .  A
C543        C544   1.391       .  A
C543       F1150   1.358       .  S
C544        C545   1.401       .  A
C544        H549   1.084       .  S
C545        C546   1.404       .  A
C546        F547   1.357       .  S
F550       C1143   1.358   1_455  S
C551        C552   1.399       .  A
C551        C556   1.391       .  A
C551        H558   1.081       .  S
C552        C553   1.407       .  A
C553        C554   1.397       .  A
C553        F560   1.358       .  S
C554        C555   1.406       .  A
C554        H559   1.083       .  S
C555        C556   1.411       .  A
C556        F557   1.358       .  S
C561        C562   1.412       .  A
C561        C566   1.407       .  A
C561        H568   1.078       .  S
C562       C1163   1.416       .  A
C563       C1162   1.416       .  A
C563        C564   1.396       .  A
C563        F570   1.358       .  S
C564       C1165   1.400       .  A
C564        H569   1.084       .  S
C565       C1164   1.400       .  A
C565        C566   1.408       .  A
C566        F567   1.357       .  S
C571        C572   1.405       .  A
C571        C576   1.394       .  A
C571        H578   1.084       .  S
C572        C573   1.405       .  A
C573        C574   1.397       .  A
C573        F580   1.357       .  S
C574        C575   1.409       .  A
C574        H579   1.082       .  S
C575        C576   1.408       .  A
C576        F577   1.354       .  S
C581        C582   1.408       .  A
C581        C586   1.407       .  A
C581        H588   1.083       .  S
C582        C583   1.404       .  A
C583        C584   1.389       .  A
C583        F590   1.357       .  S
C584        C585   1.402       .  A
C584        H589   1.084       .  S
C585        C586   1.405       .  A
C586        F587   1.357       .  S
C591        C592   1.410       .  A
C591        C596   1.411       .  A
C591        H598   1.081   1_455  S
C593        C594   1.390       .  A
C593        F600   1.358       .  S
C594        H599   1.084       .  S
C595        C596   1.410       .  A
C596        F597   1.357   1_455  S
C601        C602   1.528       .  S
C601        C907   1.530   1_554  S
C601        C605   1.550   1_554  S
C601        C892   1.537       .  S
C602        H609   1.087       .  S
C602        C603   1.358       .  D
C603        C904   1.531   1_554  S
C603        C885   1.472       .  S
C604        C903   1.534       .  S
C604        C608   1.540       .  S
C604        C906   1.549       .  S
C604        H610   1.105       .  S
C605        H611   1.080       .  S
C605        C606   1.387       .  D
C606        C904   1.548       .  S
C606        C918   1.506       .  S
C607        C901   1.529       .  S
C607        H612   1.087       .  S
C607        C608   1.358       .  D
C608        C875   1.482       .  S
C613        C617   1.552       .  S
C613        C862   1.539       .  S
C614        H921   1.086       .  S
C614        C615   1.361       .  D
C615        C616   1.542       .  S
C615       C1152   1.478       .  S
C616        C620   1.540       .  S
C616        H622   1.106       .  S
C617        H623   1.078       .  S
C617        C618   1.384       .  D
C618        C906   1.510       .  S
C619        H624   1.086       .  S
C619        C620   1.362       .  D
C620        C842   1.485       .  S
H621        C914   1.086   1_554  S
Zr625       O626   2.439       .  S
Zr625       O627   2.444       .  S
Zr625       O628   2.452       .  S
Zr625       O631   2.424       .  S
Zr625       O633   2.379       .  S
Zr625       O634   2.387       .  S
Zr625       O635   2.406       .  S
Zr625       O636   2.410       .  S
O626        H682   0.990       .  S
O626        H690   0.991       .  S
O627        C647   1.287       .  A
O628        C649   1.288       .  A
O629       Zr639   2.423       .  S
O629        C648   1.283       .  A
O630       Zr638   2.431       .  S
O630        C649   1.284       .  A
O631        C648   1.282       .  A
O632       Zr640   2.410       .  S
O632        C647   1.280       .  A
O633       Zr638   2.391       .  S
O633       Zr640   2.378       .  S
O634       Zr639   2.387       .  S
O634       Zr640   2.371       .  S
O634        H669   0.964       .  S
O635       Zr638   2.394       .  S
O635       Zr655   2.393       .  S
O635        H672   0.966       .  S
O636       Zr639   2.386       .  S
O636       Zr655   2.389       .  S
Zr637       O662   2.440       .  S
Zr637       O656   2.432       .  S
Zr637       O664   2.447       .  S
Zr637       O652   2.451       .  S
Zr637       O643   2.399       .  S
Zr637       O644   2.412       .  S
Zr637       O645   2.385       .  S
Zr637       O646   2.388       .  S
Zr638       O657   2.440       .  S
Zr638       O650   2.433       .  S
Zr638       O651   2.416       .  S
Zr638       O644   2.402       .  S
Zr638       O645   2.390       .  S
Zr639       O641   2.436       .  S
Zr639       O663   2.438       .  S
Zr639       O665   2.429       .  S
Zr639       O643   2.391       .  S
Zr639       O646   2.388       .  S
Zr640       O666   2.435       .  S
Zr640       O667   2.435       .  S
Zr640       O642   2.437       .  S
Zr640       O643   2.390       .  S
Zr640       O644   2.395       .  S
O641        H678   0.990       .  S
O642        H673   0.990       .  S
O642        H687   0.990       .  S
O644        H670   0.964       .  S
O645       Zr655   2.378       .  S
O646       Zr655   2.383       .  S
O646        H671   0.965       .  S
C647        C855   1.487       .  S
C648        C882   1.468       .  S
C649        C822   1.492       .  S
O650        H686   0.990       .  S
O651        C653   1.282       .  A
O652        C653   1.286       .  A
C653        C845   1.473       .  S
O654       Zr655   2.436       .  S
O654        H683   0.990       .  S
Zr655       O658   2.437       .  S
Zr655       O659   2.440       .  S
Zr655       O660   2.404       .  S
O656        C661   1.283       .  A
O657        H674   0.990       .  S
O657        H689   0.990       .  S
O658        H675   0.990       .  S
O659        H679   0.990       .  S
O659        H688   0.990       .  S
O660        C661   1.280       .  A
C661        C872   1.477       .  S
O662        H681   0.990       .  S
O662        H685   0.990       .  S
O663        H677   0.990       .  S
O663        H684   0.990       .  S
O664        C668   1.288       .  A
O665        C668   1.284       .  A
O666        H676   0.990       .  S
O667        H680   0.990       .  S
C668        C835   1.492       .  S
C691        C692   1.536       .  S
C691        C697   1.537       .  S
C691        C695   1.544       .  S
C691        C832   1.544       .  S
C692        H699   1.086       .  S
C692        C693   1.360       .  D
C693        C694   1.537   1_545  S
C693        C812   1.470       .  S
C694        C698   1.540   1_565  S
C694        C696   1.545       .  S
C694        H700   1.107       .  S
C695        H701   1.082       .  S
C695        C696   1.384   1_545  D
C696        C708   1.514       .  S
C697        H702   1.082       .  S
C697        C698   1.362       .  D
C698        C805   1.484       .  S
C703        C704   1.534       .  S
C703        C709   1.534       .  S
C703        C707   1.549       .  S
C703        C825   1.545       .  S
C704        H711   1.080       .  S
C704        C705   1.361       .  D
C705        C706   1.540       .  S
C705        C792   1.489       .  S
C706        C710   1.542       .  S
C706        C708   1.546       .  S
C706        H712   1.106       .  S
C707        H713   1.082       .  S
C707        C708   1.384       .  D
C709        H714   1.086       .  S
C709        C710   1.361       .  D
C710        C782   1.481       .  S
Zr715       O716   2.440       .  S
Zr715       O717   2.429       .  S
Zr715       O718   2.454       .  S
Zr715       O721   2.435   1_545  S
Zr715       O723   2.382       .  S
Zr715       O724   2.386   1_545  S
Zr715      O1025   2.405   1_554  S
Zr715      O1026   2.406   1_545  S
O716        H772   0.991       .  S
O716        H780   0.989       .  S
O718        C739   1.289       .  A
O719       Zr729   2.432       .  S
O719        C738   1.285       .  A
O720       Zr728   2.444       .  S
O720       C1039   1.286       .  A
O721        C738   1.284       .  A
O722       Zr730   2.401       .  S
O722        C737   1.279   1_565  A
O723      Zr1028   2.397   1_554  S
O724       Zr729   2.395       .  S
O724        H759   0.966       .  S
O725      Zr1015   2.407       .  S
O725       Zr728   2.401       .  S
O725       Zr745   2.392   1_545  S
O725        H762   0.966       .  S
O726      Zr1015   2.401   1_565  S
O726      Zr1029   2.382       .  S
O726       Zr745   2.392       .  S
Zr727       O746   2.424       .  S
Zr727       O754   2.450       .  S
Zr727       O733   2.388       .  S
Zr727       O735   2.380       .  S
Zr727       O736   2.391       .  S
Zr728       O747   2.437       .  S
Zr728      O1023   2.392       .  S
Zr728       O735   2.394   1_545  S
Zr729      O1031   2.436   1_554  S
Zr729       O753   2.442       .  S
Zr729      O1055   2.429   1_554  S
Zr729      O1026   2.391       .  S
Zr729      O1033   2.391   1_554  S
Zr729      O1036   2.394   1_554  S
Zr730       O756   2.434       .  S
Zr730       O757   2.435   1_554  S
Zr730       O732   2.436       .  S
Zr730      O1034   2.393   1_554  S
O731      Zr1029   2.434       .  S
O731       H1068   0.990       .  S
O732        H763   0.991       .  S
O732        H777   0.990   1_565  S
O733      Zr1029   2.396       .  S
O734      Zr1030   2.394       .  S
O734        H760   0.964       .  S
O735       Zr745   2.370       .  S
O736      Zr1029   2.396       .  S
O736       Zr745   2.385       .  S
O736        H761   0.966       .  S
C737        C815   1.482       .  S
C738        C795   1.475       .  S
C739       O1020   1.286   1_554  A
C739        C895   1.489       .  S
O740        H776   0.990       .  S
O741        C743   1.285   1_545  A
O742        C743   1.285       .  A
C743        C802   1.483       .  S
O744       Zr745   2.440   1_545  S
O744        H773   0.990       .  S
Zr745       O748   2.439   1_565  S
Zr745       O749   2.440       .  S
Zr745       O750   2.409       .  S
O746        C751   1.281       .  A
O747        H764   0.990       .  S
O747        H779   0.990       .  S
O748        H765   0.990       .  S
O749        H769   0.990       .  S
O749        H778   0.990       .  S
O750        C751   1.280       .  A
C751        C785   1.477       .  S
O752        H771   0.990   1_455  S
O752        H775   0.990       .  S
O753        H767   0.990       .  S
O753        H774   0.990       .  S
O754        C758   1.289       .  A
O755      Zr1029   2.433       .  S
O755        C758   1.285       .  A
O756        H766   0.990       .  S
O757       H1070   0.990       .  S
C758        C865   1.483       .  S
H768       O1031   0.990   1_554  S
H770       O1057   0.990       .  S
C781        C782   1.407       .  A
C781        C786   1.400       .  A
C781        H788   1.083       .  S
C782        C783   1.403       .  A
C783        C784   1.388       .  A
C783        F790   1.351       .  S
C784        C785   1.403       .  A
C784        H789   1.083       .  S
C785        C786   1.409       .  A
C786        F787   1.358       .  S
C791        C792   1.406       .  A
C791        C796   1.407       .  A
C791        H798   1.083       .  S
C792        C793   1.409       .  A
C793        C794   1.392       .  A
C793        F800   1.358       .  S
C794        C795   1.399       .  A
C794        H799   1.084       .  S
C795        C796   1.409       .  A
C796        F797   1.358       .  S
C801        C802   1.410       .  A
C801        C806   1.407       .  A
C801        H808   1.083       .  S
C802        C803   1.406   1_565  A
C803        C804   1.394       .  A
C804        C805   1.404       .  A
C804        H809   1.084       .  S
C805        C806   1.405   1_545  A
C806        F807   1.357       .  S
C811        C812   1.402       .  A
C811        C816   1.398       .  A
C811        H818   1.083       .  S
C812        C813   1.401   1_545  A
C813        C814   1.391       .  A
C813        F820   1.357       .  S
C814        C815   1.409   1_565  A
C814        H819   1.083       .  S
C815        C816   1.409       .  A
C821        C822   1.408       .  A
C821        C826   1.402       .  A
C821        H828   1.083       .  S
C822        C823   1.406       .  A
C823        C824   1.401       .  A
C823        F830   1.358       .  S
C824        C825   1.416       .  A
C824        H829   1.077       .  S
C825        C826   1.411       .  A
C826        F827   1.357       .  S
C831        C832   1.414       .  A
C831        C836   1.401       .  A
C831        H838   1.078       .  S
C832        C833   1.413       .  A
C833        C834   1.402       .  A
C833        F840   1.357       .  S
C834        C835   1.407       .  A
C834        H839   1.083       .  S
C835        C836   1.406       .  A
C836        F837   1.358       .  S
C841        C842   1.407       .  A
C841        C846   1.405       .  A
C841        H848   1.083       .  S
C842        C843   1.408       .  A
C843        C844   1.391       .  A
C844        C845   1.400       .  A
C844        H849   1.084       .  S
C845        C846   1.406       .  A
C846        F847   1.357       .  S
C851        C852   1.399       .  A
C851        C856   1.394       .  A
C851        H858   1.082       .  S
C852        C915   1.480   1_554  S
C852        C853   1.406       .  A
C853        C854   1.399       .  A
C853        F860   1.357       .  S
C854        C855   1.407       .  A
C854        H859   1.083       .  S
C855        C856   1.414       .  A
C856        F857   1.358       .  S
C861        C862   1.412       .  A
C861        C866   1.408       .  A
C861        H868   1.078       .  S
C863        C864   1.395   1_655  A
C863        F870   1.359       .  S
C864        H869   1.084   1_455  S
C865        C866   1.407       .  A
C866        F867   1.357       .  S
C871        C872   1.405       .  A
C871        C876   1.390       .  A
C871        H878   1.083       .  S
C872        C873   1.407       .  A
C873        C874   1.399       .  A
C873        F880   1.358       .  S
C874        C875   1.409       .  A
C874        H879   1.083       .  S
C875        C876   1.403       .  A
C876        F877   1.355       .  S
C881        C882   1.407       .  A
C881        C886   1.405       .  A
C881        H888   1.083       .  S
C882        C883   1.403       .  A
C883        C884   1.386       .  A
C883        F890   1.357       .  S
C884        C885   1.400       .  A
C884        H889   1.084       .  S
C885        C886   1.405       .  A
C886        F887   1.357       .  S
C891        C892   1.411   1_556  A
C891        C896   1.412       .  A
C891        H898   1.080       .  S
C892       C1193   1.417       .  A
C893       C1192   1.418       .  A
C893        C894   1.390       .  A
C893        F900   1.359       .  S
C894       C1195   1.398       .  A
C894        H899   1.084       .  S
C895       C1194   1.399       .  A
C895        C896   1.411   1_554  A
C896        F897   1.357       .  S
C901        C902   1.528       .  S
C901        C905   1.552       .  S
C901       C1192   1.534       .  S
C902        H909   1.087       .  S
C902        C903   1.358       .  D
C903       C1185   1.474       .  S
C904        C908   1.539       .  S
C904        H910   1.104       .  S
C905        H911   1.080       .  S
C905        C906   1.389       .  D
C907        H912   1.086       .  S
C907        C908   1.363       .  D
C908       C1175   1.489       .  S
C913        C917   1.550       .  S
C913       C1162   1.535       .  S
C914        C915   1.363       .  D
C915        C916   1.540       .  S
C916        C920   1.540       .  S
C916        H922   1.106       .  S
C917        H923   1.077       .  S
C917        C918   1.381       .  D
C919        H924   1.086       .  S
C919        C920   1.363       .  D
C920       C1142   1.484       .  S
Zr925       O926   2.439       .  S
Zr925       O927   2.426       .  S
Zr925       O928   2.460       .  S
Zr925       O931   2.428       .  S
Zr925       O933   2.382       .  S
Zr925       O934   2.390       .  S
Zr925       O935   2.395       .  S
Zr925       O936   2.407       .  S
O926        H982   0.990       .  S
O926        H990   0.991       .  S
O927        C947   1.284       .  A
O928        C949   1.290       .  A
O929       Zr939   2.435       .  S
O929        C948   1.285       .  A
O930       Zr938   2.421       .  S
O930        C949   1.283       .  A
O931        C948   1.283       .  A
O932       Zr940   2.413       .  S
O932        C947   1.281       .  A
O933       Zr938   2.386       .  S
O933       Zr940   2.376       .  S
O934       Zr939   2.384       .  S
O934       Zr940   2.371       .  S
O934        H969   0.964       .  S
O935       Zr938   2.391       .  S
O935       Zr955   2.386       .  S
O935        H972   0.966       .  S
O936       Zr939   2.393       .  S
O936       Zr955   2.394       .  S
Zr937       O962   2.441       .  S
Zr937       O956   2.433       .  S
Zr937       O964   2.443       .  S
Zr937       O952   2.440       .  S
Zr937       O943   2.396       .  S
Zr937       O944   2.413       .  S
Zr937       O945   2.379       .  S
Zr937       O946   2.386       .  S
Zr938       O957   2.436       .  S
Zr938       O950   2.435       .  S
Zr938       O951   2.405       .  S
Zr938       O944   2.398       .  S
Zr938       O945   2.387       .  S
Zr939       O941   2.435       .  S
Zr939       O963   2.439       .  S
Zr939       O965   2.440       .  S
Zr939       O943   2.389       .  S
Zr939       O946   2.393       .  S
Zr940       O966   2.435       .  S
Zr940       O967   2.436       .  S
Zr940       O942   2.438       .  S
Zr940       O943   2.390       .  S
Zr940       O944   2.390       .  S
O941        H978   0.990       .  S
O942        H973   0.990       .  S
O942        H987   0.990       .  S
O944        H970   0.964       .  S
O945       Zr955   2.374       .  S
O946       Zr955   2.390       .  S
O946        H971   0.965       .  S
C947       C1155   1.478       .  S
C948       C1182   1.472       .  S
C949       C1122   1.491       .  S
O950        H986   0.990       .  S
O951        C953   1.281       .  A
O952        C953   1.283       .  A
C953       C1145   1.465       .  S
O954       Zr955   2.439       .  S
O954        H983   0.990       .  S
Zr955       O958   2.438       .  S
Zr955       O959   2.437       .  S
Zr955       O960   2.401       .  S
O956        C961   1.283       .  A
O957        H974   0.990       .  S
O957        H989   0.990       .  S
O958        H975   0.990       .  S
O959        H979   0.990       .  S
O959        H988   0.990       .  S
O960        C961   1.279       .  A
C961       C1172   1.476       .  S
O962        H981   0.991       .  S
O962        H985   0.990       .  S
O963        H977   0.990       .  S
O963        H984   0.990       .  S
O964        C968   1.287       .  A
O965        C968   1.286       .  A
O966        H976   0.990       .  S
O967        H980   0.990       .  S
C968       C1135   1.495       .  S
C991        C992   1.537       .  S
C991        C997   1.536       .  S
C991        C995   1.543       .  S
C991       C1132   1.543       .  S
C992        H999   1.086       .  S
C992        C993   1.361       .  D
C993        C994   1.539   1_545  S
C993       C1112   1.474       .  S
C994        C998   1.540   1_565  S
C994        C996   1.549       .  S
C994       H1000   1.107       .  S
C995       H1001   1.082       .  S
C995        C996   1.382   1_545  D
C996       C1008   1.515       .  S
C997       H1002   1.081       .  S
C997        C998   1.361       .  D
C998       C1105   1.481       .  S
C1003      C1004   1.535       .  S
C1003      C1009   1.536       .  S
C1003      C1007   1.548       .  S
C1003      C1125   1.544       .  S
C1004      H1011   1.081       .  S
C1004      C1005   1.361       .  D
C1005      C1006   1.544       .  S
C1005      C1092   1.490       .  S
C1006      C1010   1.541       .  S
C1006      C1008   1.548       .  S
C1006      H1012   1.106       .  S
C1007      H1013   1.083       .  S
C1007      C1008   1.383       .  D
C1009      H1014   1.086       .  S
C1009      C1010   1.361       .  D
C1010      C1082   1.480       .  S
Zr1015     O1016   2.441       .  S
Zr1015     O1017   2.443       .  S
Zr1015     O1018   2.447       .  S
Zr1015     O1021   2.436   1_545  S
Zr1015     O1023   2.381       .  S
Zr1015     O1024   2.381   1_545  S
O1016      H1072   0.990       .  S
O1016      H1080   0.990       .  S
O1018      C1039   1.288       .  A
O1019     Zr1029   2.441       .  S
O1019      C1038   1.286       .  A
O1020     Zr1028   2.445       .  S
O1021      C1038   1.284       .  A
O1022     Zr1030   2.409       .  S
O1022      C1037   1.281   1_565  A
O1024     Zr1029   2.385       .  S
O1024      H1059   0.965       .  S
O1025     Zr1028   2.403       .  S
O1025     Zr1045   2.385   1_545  S
O1025      H1062   0.965       .  S
O1026     Zr1045   2.390   1_554  S
Zr1027     O1046   2.433       .  S
Zr1027     O1054   2.453       .  S
Zr1027     O1033   2.389       .  S
Zr1027     O1035   2.383       .  S
Zr1027     O1036   2.391       .  S
Zr1028     O1047   2.439       .  S
Zr1028     O1035   2.394   1_545  S
Zr1029     O1053   2.441       .  S
Zr1030     O1056   2.435       .  S
Zr1030     O1057   2.436       .  S
Zr1030     O1032   2.436       .  S
O1032      H1063   0.990       .  S
O1032      H1077   0.990   1_565  S
O1034      H1060   0.964       .  S
O1035     Zr1045   2.376       .  S
O1036     Zr1045   2.388       .  S
O1036      H1061   0.967       .  S
C1037      C1115   1.484       .  S
C1038      C1095   1.480       .  S
C1039      C1195   1.485       .  S
O1040      H1076   0.989       .  S
O1041      C1043   1.284   1_545  A
O1042      C1043   1.284       .  A
C1043      C1102   1.479       .  S
O1044     Zr1045   2.437   1_545  S
O1044      H1073   0.990       .  S
Zr1045     O1048   2.436   1_565  S
Zr1045     O1049   2.438       .  S
Zr1045     O1050   2.409       .  S
O1046      C1051   1.283       .  A
O1047      H1064   0.990       .  S
O1047      H1079   0.990       .  S
O1048      H1065   0.990       .  S
O1049      H1069   0.990       .  S
O1049      H1078   0.989       .  S
O1050      C1051   1.281       .  A
C1051      C1085   1.484       .  S
O1052      H1071   0.991   1_455  S
O1052      H1075   0.990       .  S
O1053      H1067   0.990       .  S
O1053      H1074   0.990       .  S
O1054      C1058   1.288       .  A
O1055      C1058   1.283       .  A
O1056      H1066   0.990       .  S
C1058      C1165   1.483       .  S
C1081      C1082   1.405       .  A
C1081      C1086   1.400       .  A
C1081      H1088   1.083       .  S
C1082      C1083   1.403       .  A
C1083      C1084   1.392       .  A
C1083      F1090   1.353       .  S
C1084      C1085   1.406       .  A
C1084      H1089   1.083       .  S
C1085      C1086   1.411       .  A
C1086      F1087   1.357       .  S
C1091      C1092   1.405       .  A
C1091      C1096   1.407       .  A
C1091      H1098   1.083       .  S
C1092      C1093   1.410       .  A
C1093      C1094   1.395       .  A
C1093      F1100   1.358       .  S
C1094      C1095   1.401       .  A
C1094      H1099   1.084       .  S
C1095      C1096   1.409       .  A
C1096      F1097   1.357       .  S
C1101      C1102   1.409       .  A
C1101      C1106   1.405       .  A
C1101      H1108   1.083       .  S
C1102      C1103   1.406   1_565  A
C1103      C1104   1.392       .  A
C1104      C1105   1.404       .  A
C1104      H1109   1.084       .  S
C1105      C1106   1.403   1_545  A
C1106      F1107   1.357       .  S
C1111      C1112   1.404       .  A
C1111      C1116   1.401       .  A
C1111      H1118   1.083       .  S
C1112      C1113   1.400   1_545  A
C1113      C1114   1.391       .  A
C1113      F1120   1.356       .  S
C1114      C1115   1.408   1_565  A
C1114      H1119   1.083       .  S
C1115      C1116   1.411       .  A
C1121      C1122   1.409       .  A
C1121      C1126   1.401       .  A
C1121      H1128   1.083       .  S
C1122      C1123   1.404       .  A
C1123      C1124   1.401       .  A
C1123      F1130   1.358       .  S
C1124      C1125   1.416       .  A
C1124      H1129   1.077       .  S
C1125      C1126   1.411       .  A
C1126      F1127   1.358       .  S
C1131      C1132   1.413       .  A
C1131      C1136   1.400       .  A
C1131      H1138   1.077       .  S
C1132      C1133   1.412       .  A
C1133      C1134   1.404       .  A
C1133      F1140   1.358       .  S
C1134      C1135   1.408       .  A
C1134      H1139   1.083       .  S
C1135      C1136   1.408       .  A
C1136      F1137   1.358       .  S
C1141      C1142   1.408       .  A
C1141      C1146   1.403       .  A
C1141      H1148   1.083       .  S
C1142      C1143   1.408       .  A
C1143      C1144   1.388       .  A
C1144      C1145   1.399       .  A
C1144      H1149   1.084       .  S
C1145      C1146   1.404       .  A
C1146      F1147   1.358       .  S
C1151      C1152   1.400       .  A
C1151      C1156   1.392       .  A
C1151      H1158   1.082       .  S
C1152      C1153   1.408       .  A
C1153      C1154   1.396       .  A
C1153      F1160   1.358       .  S
C1154      C1155   1.405       .  A
C1154      H1159   1.083       .  S
C1155      C1156   1.411       .  A
C1156      F1157   1.358       .  S
C1161      C1162   1.411       .  A
C1161      C1166   1.405       .  A
C1161      H1168   1.078       .  S
C1163      C1164   1.397       .  A
C1163      F1170   1.358   1_455  S
C1164      H1169   1.084   1_455  S
C1165      C1166   1.408       .  A
C1166      F1167   1.357       .  S
C1171      C1172   1.405       .  A
C1171      C1176   1.393       .  A
C1171      H1178   1.084       .  S
C1172      C1173   1.404       .  A
C1173      C1174   1.396       .  A
C1173      F1180   1.357       .  S
C1174      C1175   1.409       .  A
C1174      H1179   1.082       .  S
C1175      C1176   1.408       .  A
C1176      F1177   1.354       .  S
C1181      C1182   1.407       .  A
C1181      C1186   1.405       .  A
C1181      H1188   1.083       .  S
C1182      C1183   1.404       .  A
C1183      C1184   1.390       .  A
C1183      F1190   1.358       .  S
C1184      C1185   1.402       .  A
C1184      H1189   1.084       .  S
C1185      C1186   1.404       .  A
C1186      F1187   1.357       .  S
C1191      C1192   1.410       .  A
C1191      C1196   1.412       .  A
C1191      H1198   1.080       .  S
C1193      C1194   1.392       .  A
C1193      F1200   1.358       .  S
C1194      H1199   1.084       .  S
C1195      C1196   1.410       .  A
C1196      F1197   1.357       .  S
