geometry optimzed in LAMMPS
_audit_creation_date              2020-12-01 
_audit_creation_method            'lammps2cif' 
_symmetry_space_group_name_H-M    'P1' 
_symmetry_Int_Tables_number       1 
_symmetry_cell_setting            triclinic 
loop_ 
_symmetry_equiv_pos_as_xyz 
  x,y,z 
_cell_length_a                    29.98942377 
_cell_length_b                    19.289729635349946 
_cell_length_c                    25.424738296292425 
_cell_angle_alpha                 87.69998883112454 
_cell_angle_beta                  89.1620550446261 
_cell_angle_gamma                 89.20327651190053 
loop_ 
_atom_site_label 
_atom_site_type_symbol 
_atom_site_fract_x 
_atom_site_fract_y 
_atom_site_fract_z 
_atom_site_charge 
C1          C  0.68626092  0.25975156  0.24865721    -0.02800
C2          C  0.80827131  0.50641593  0.24933068    -0.02800
C3          C  0.30677719  0.23901710  0.25551253    -0.02800
C4          C  0.18865288  0.49291413  0.24503722    -0.02800
O5          O  0.95440452  0.06762137  0.43802250    -0.73200
O6          O  0.04672435  0.06052141  0.05169127    -0.74200
O7          O  0.04902313  0.06107433  0.43988791    -0.62800
O8          O  0.95242189  0.06850326  0.05016477    -0.71300
O9          O  0.95074037  0.45374444  0.05446230    -0.70800
O10         O  0.04604600  0.44611584  0.44302704    -0.62100
O11         O  0.04488452  0.44555536  0.05385528    -0.74600
O12         O  0.95175461  0.45300115  0.44268931    -0.73300
Cu13       Cu  0.00068680  0.06849591  0.99476406     1.04600
Cu14       Cu  0.99817080  0.44569174  0.99858311     1.04300
C15         C  0.93862422  0.51110472  0.42206186     0.93000
C16         C  0.06052114  0.50165390  0.07050597     0.92100
C17         C  0.06305279  0.50241163  0.42434477     0.84200
C18         C  0.93681884  0.51227121  0.07057778     0.90500
O19         O  0.54120502  0.30294504  0.05668565    -0.73200
O20         O  0.44769634  0.30531213  0.44659583    -0.74200
O21         O  0.44669513  0.29884612  0.05845810    -0.62800
O22         O  0.54192951  0.30560188  0.44460308    -0.71300
O23         O  0.54285388  0.19082648  0.44606455    -0.70800
O24         O  0.45075165  0.18363773  0.06037273    -0.62100
O25         O  0.44820531  0.19033330  0.44845547    -0.74600
O26         O  0.54461259  0.18816217  0.05802641    -0.73300
Cu27       Cu  0.49434775  0.30719145  0.00157514     1.04600
Cu28       Cu  0.49671485  0.18423777  0.00317812     1.04300
C29         C  0.55745939  0.24581482  0.07543753     0.93000
C30         C  0.43312446  0.24864462  0.42986700     0.92100
C31         C  0.43425168  0.23969702  0.07752741     0.84200
C32         C  0.55715171  0.24854283  0.42696636     0.90500
C33         C  0.16380368  0.04075053  0.33553071    -0.26600
C34         C  0.15780791  0.49340679  0.29515277    -0.14700
C35         C  0.12102215  0.44749447  0.30064536     0.35900
C36         C  0.09176426  0.45118490  0.34366715    -0.26100
C37         C  0.09768311  0.49906044  0.38268942    -0.15300
C38         C  0.13514099  0.04296984  0.37954716     0.37000
N39         N  0.14601722  0.08935983  0.42033324    -0.89600
H40         H  0.19112920  0.07662848  0.33409175     0.18100
H41         H  0.06346133  0.41675594  0.34594103     0.18100
N42         N  0.11338864  0.39618763  0.26260299    -0.88600
H43         H  0.17836080  0.07680830  0.43265615     0.35500
H44         H  0.12605841  0.08119305  0.45382502     0.40600
H45         H  0.11364762  0.34731388  0.28193010     0.40200
H46         H  0.08164017  0.40499047  0.24699723     0.35100
C47         C  0.09071578  0.54764932  0.15177476    -0.26600
C48         C  0.09381385  0.49870153  0.11288639    -0.14700
C49         C  0.12763079  0.94739223  0.11592036     0.35900
C50         C  0.15826101  0.94726612  0.15726963    -0.26100
C51         C  0.15635863  0.49715237  0.19673000    -0.15300
C52         C  0.12030290  0.54656837  0.19386389     0.37000
N53         N  0.11304203  0.59579061  0.23409092    -0.89600
H54         H  0.06407749  0.58623777  0.15044618     0.18100
H55         H  0.18249792  0.90559129  0.15875402     0.18100
N56         N  0.13145435  0.89601947  0.07655191    -0.88600
H57         H  0.08138726  0.08734011  0.25079826     0.35500
H58         H  0.11295748  0.64576758  0.21653402     0.40600
H59         H  0.10499654  0.86177895  0.08257728     0.40200
H60         H  0.16055117  0.36605915  0.08169585     0.35100
C61         C  0.28550994  0.36289778  0.21668184    -0.23400
C62         C  0.27793344  0.30739786  0.25363991    -0.14700
C63         C  0.24229828  0.31633328  0.28999761     0.35900
C64         C  0.21450553  0.37451361  0.28650852    -0.26100
C65         C  0.21827598  0.42545868  0.24547374    -0.15300
C66         C  0.25483313  0.41808803  0.20977014     0.37000
N67         N  0.26215245  0.46840698  0.16757644    -0.89600
H68         H  0.31528633  0.36485455  0.19243461     0.18100
H69         H  0.19049048  0.37851544  0.31808940     0.18100
N70         N  0.23348824  0.26627217  0.33142421    -0.88600
H71         H  0.29358228  0.48999966  0.17218201     0.35500
H72         H  0.26262556  0.44257486  0.13219297     0.40600
H73         H  0.23548387  0.29047084  0.36738729     0.40200
H74         H  0.20098948  0.24837722  0.32746776     0.35100
C75         C  0.29177162  0.10931481  0.26696975    -0.26600
C76         C  0.27667025  0.17524895  0.24912901    -0.14700
C77         C  0.23690478  0.17712801  0.21898753     0.35900
C78         C  0.21265192  0.11667925  0.21352838    -0.26100
C79         C  0.22146630  0.05560208  0.24393413    -0.15300
C80         C  0.26220242  0.05383395  0.27240753     0.37000
N81         N  0.27362372  0.99707105  0.30802525    -0.89600
H82         H  0.32432902  0.10313533  0.28432459     0.18100
H83         H  0.18621919  0.12037915  0.18561795     0.18100
N84         N  0.22063247  0.23920270  0.19244265    -0.88600
H85         H  0.30452183  0.97659332  0.29635437     0.35500
H86         H  0.27704653  0.01621664  0.34561138     0.40600
H87         H  0.21777899  0.22997727  0.15237976     0.40200
H88         H  0.18865043  0.25010184  0.20714666     0.35100
C89         C  0.36431986  0.29731553  0.30905417    -0.26600
C90         C  0.33262366  0.24337357  0.30893434    -0.14700
C91         C  0.33028810  0.19903057  0.35620887     0.35900
C92         C  0.36475787  0.20082037  0.39289460    -0.26100
C93         C  0.39812858  0.25046388  0.38927220    -0.15300
C94         C  0.39662149  0.30121226  0.34782725     0.37000
N95         N  0.42900132  0.35500553  0.34196132    -0.89600
H96         H  0.36605716  0.33476595  0.27618172     0.18100
H97         H  0.36408907  0.16449648  0.42658432     0.18100
N98         N  0.29422455  0.15357015  0.37152336    -0.88600
H99         H  0.46086223  0.33227252  0.34129406     0.35500
H100        H  0.42611834  0.38702903  0.37402679     0.40600
H101        H  0.26655210  0.15945693  0.34808275     0.40200
H102        H  0.28263005  0.16761055  0.40866255     0.35100
C103        C  0.41445271  0.20827337  0.16953672    -0.26600
C104        C  0.40102723  0.23538747  0.12042651    -0.14700
C105        C  0.35595094  0.25383455  0.11295905     0.35900
C106        C  0.32642754  0.24967892  0.15602920    -0.26100
C107        C  0.34074870  0.23341386  0.20804128    -0.15300
C108        C  0.38486177  0.20518131  0.21281991     0.37000
N109        N  0.39960606  0.16998246  0.26023596    -0.89600
H110        H  0.44836408  0.18908687  0.17442158     0.18100
H111        H  0.29230495  0.26407331  0.14852314     0.18100
N112        N  0.33854028  0.27556861  0.06238705    -0.88600
H113        H  0.42848662  0.19402541  0.27254115     0.35500
H114        H  0.40806578  0.11888737  0.25157746     0.40600
H115        H  0.36281529  0.27435329  0.03262187     0.40200
H116        H  0.32780841  0.32718677  0.06470360     0.35100
C117        C  0.86932789  0.06186517  0.30134107    -0.26600
C118        C  0.84071806  0.50445941  0.29738648    -0.14700
C119        C  0.84766261  0.44749337  0.33421131     0.35900
C120        C  0.87866857  0.45265918  0.37470915    -0.26100
C121        C  0.90497004  0.51156641  0.37950337    -0.15300
C122        C  0.90014463  0.06671618  0.34170067     0.37000
N123        N  0.92670640  0.12784953  0.34202061    -0.89600
H124        H  0.86711947  0.10482507  0.27265584     0.18100
H125        H  0.88279588  0.40871265  0.40220872     0.18100
N126        N  0.82643554  0.38204244  0.32951897    -0.88600
H127        H  0.96040424  0.11327194  0.34061402     0.35500
H128        H  0.91988100  0.15364086  0.37664084     0.40600
H129        H  0.80936454  0.37005136  0.36479761     0.40200
H130        H  0.85110919  0.34384774  0.32493093     0.35100
C131        C  0.90156654  0.95567520  0.14924927    -0.26600
C132        C  0.90375699  0.51374906  0.11459009    -0.14700
C133        C  0.87563587  0.57144176  0.12433049     0.35900
C134        C  0.84551532  0.56861577  0.16697582    -0.26100
C135        C  0.84125062  0.50872324  0.20076279    -0.15300
C136        C  0.87199614  0.95314734  0.19228929     0.37000
N137        N  0.87350326  0.89324905  0.22735212    -0.89600
H138        H  0.92387415  0.91177205  0.14376818     0.18100
H139        H  0.82650976  0.61537024  0.17385136     0.18100
N140        N  0.87638754  0.63371208  0.09167319    -0.88600
H141        H  0.90553091  0.88908152  0.24298486     0.35500
H142        H  0.86819672  0.84925178  0.20565031     0.40600
H143        H  0.87077457  0.62100195  0.05275095     0.40200
H144        H  0.90763780  0.65648781  0.09426572     0.35100
C145        C  0.77487122  0.11853448  0.29156354    -0.26600
C146        C  0.77654211  0.07248299  0.24946337    -0.14700
C147        C  0.74719058  0.08788636  0.20720657     0.35900
C148        C  0.72057005  0.14853219  0.20613800    -0.26100
C149        C  0.71861989  0.19433914  0.24837928    -0.15300
C150        C  0.74811011  0.17914002  0.29053958     0.37000
N151        N  0.75025313  0.22446957  0.33369856    -0.89600
H152        H  0.79354527  0.10783219  0.32696586     0.18100
H153        H  0.70208704  0.15933663  0.17060360     0.18100
N154        N  0.74491691  0.04256569  0.16404265    -0.88600
H155        H  0.78309187  0.24132723  0.33627294     0.35500
H156        H  0.74247763  0.19597495  0.36840743     0.40600
H157        H  0.75272642  0.07099462  0.12931830     0.40200
H158        H  0.71204524  0.02580328  0.16150525     0.35100
C159        C  0.71788404  0.37051356  0.29068788    -0.26600
C160        C  0.71771288  0.32429009  0.24874550    -0.14700
C161        C  0.74905395  0.33733256  0.20735811     0.35900
C162        C  0.77584781  0.39667280  0.20661424    -0.26100
C163        C  0.77617975  0.44266762  0.24869193    -0.15300
C164        C  0.74459309  0.42996024  0.28985970     0.37000
N165        N  0.74036480  0.47642844  0.33230613    -0.89600
H166        H  0.69780632  0.36105900  0.32568228     0.18100
H167        H  0.79599129  0.40611069  0.17166476     0.18100
N168        N  0.75322310  0.29100976  0.16481444    -0.88600
H169        H  0.70756007  0.49546649  0.33307698     0.35500
H170        H  0.74583736  0.44846483  0.36774236     0.40600
H171        H  0.74770101  0.31909507  0.12944326     0.40200
H172        H  0.78603318  0.27199497  0.16392928     0.35100
C173        C  0.64972671  0.19681108  0.33083518    -0.26600
C174        C  0.65347086  0.25699212  0.29740535    -0.14700
C175        C  0.62211855  0.31178913  0.30610464     0.35900
C176        C  0.59233696  0.30813326  0.34907457    -0.26100
C177        C  0.59054926  0.24949603  0.38318700    -0.15300
C178        C  0.61941847  0.19267523  0.37313853     0.37000
N179        N  0.61920389  0.12972386  0.40504556    -0.89600
H180        H  0.66913480  0.15052308  0.32373899     0.18100
H181        H  0.56950770  0.35131919  0.35483345     0.18100
N182        N  0.62012970  0.37184926  0.27123207    -0.88600
H183        H  0.58843072  0.10573112  0.40158194     0.35500
H184        H  0.62427323  0.14166689  0.44424169     0.40600
H185        H  0.62490621  0.41581849  0.29314451     0.40200
H186        H  0.58812064  0.37534518  0.25549601     0.35100
C187        C  0.61589023  0.30829151  0.12235405    -0.26600
C188        C  0.59088511  0.24789714  0.11794637    -0.14700
C189        C  0.59581318  0.19415725  0.15679618     0.35900
C190        C  0.62586143  0.20144282  0.19758151    -0.26100
C191        C  0.65360892  0.26005733  0.20092853    -0.15300
C192        C  0.64611345  0.31592779  0.16338894     0.37000
N193        N  0.66594624  0.38249566  0.16787241    -0.89600
H194        H  0.61124730  0.35134885  0.09415873     0.18100
H195        H  0.62841552  0.15926744  0.22688325     0.18100
N196        N  0.56993899  0.13225323  0.15718860    -0.88600
H197        H  0.64044399  0.41953087  0.17173138     0.35500
H198        H  0.68319896  0.39482766  0.13277986     0.40600
H199        H  0.57760031  0.10537983  0.12327439     0.40200
H200        H  0.53609951  0.14602659  0.15749342     0.35100
C201        C  0.68625763  0.25973794  0.74864657    -0.02800
C202        C  0.80826820  0.50640247  0.74931780    -0.02800
C203        C  0.30678020  0.23900754  0.75552243    -0.02800
C204        C  0.18865556  0.49290491  0.74505005    -0.02800
O205        O  0.95439307  0.06761723  0.93801588    -0.73200
O206        O  0.04673885  0.06051983  0.55169437    -0.74200
O207        O  0.04901160  0.06106903  0.93988504    -0.62800
O208        O  0.95243572  0.06850091  0.55017089    -0.71300
O209        O  0.95075468  0.45374212  0.55446470    -0.70800
O210        O  0.04603399  0.44611036  0.94302718    -0.62100
O211        O  0.04489932  0.44555411  0.55385521    -0.74600
O212        O  0.95174281  0.45299709  0.94268619    -0.73300
Cu213      Cu  0.00069985  0.06849725  0.49476900     1.04600
Cu214      Cu  0.99818429  0.44569332  0.49858444     1.04300
C215        C  0.93861342  0.51109965  0.92205613     0.93000
C216        C  0.06053584  0.50165181  0.57050735     0.92100
C217        C  0.06304207  0.50240504  0.92434462     0.84200
C218        C  0.93683175  0.51226769  0.57058094     0.90500
O219        O  0.54119504  0.30294104  0.55668446    -0.73200
O220        O  0.44770736  0.30530679  0.94659623    -0.74200
O221        O  0.44668512  0.29883923  0.55845809    -0.62800
O222        O  0.54193937  0.30559387  0.94460355    -0.71300
O223        O  0.54286393  0.19081828  0.94607178    -0.70800
O224        O  0.45074302  0.18363112  0.56036636    -0.62100
O225        O  0.44821545  0.19032772  0.94846218    -0.74600
O226        O  0.54460404  0.18815843  0.55801794    -0.73300
Cu227      Cu  0.49433730  0.30719228  0.50157475     1.04600
Cu228      Cu  0.49670537  0.18423878  0.50317053     1.04300
C229        C  0.55745089  0.24580940  0.57543187     0.93000
C230        C  0.43313541  0.24863776  0.92987027     0.92100
C231        C  0.43424287  0.23968812  0.57752489     0.84200
C232        C  0.55716050  0.24853303  0.92696887     0.90500
C233        C  0.16380093  0.04073841  0.83554256    -0.26600
C234        C  0.15780779  0.49339559  0.79516340    -0.14700
C235        C  0.12102147  0.44748391  0.80065207     0.35900
C236        C  0.09175996  0.45117542  0.84367057    -0.26100
C237        C  0.09767578  0.49905146  0.88269321    -0.15300
C238        C  0.13513460  0.04295881  0.87955570     0.37000
N239        N  0.14600819  0.08934801  0.92034330    -0.89600
H240        H  0.19112693  0.07661541  0.83410691     0.18100
H241        H  0.06345653  0.41674742  0.84594132     0.18100
N242        N  0.11339054  0.39617752  0.76260859    -0.88600
H243        H  0.17835030  0.07679449  0.93267028     0.35500
H244        H  0.12604618  0.08118241  0.95383275     0.40600
H245        H  0.11364748  0.34730369  0.78193555     0.40200
H246        H  0.08164346  0.40498144  0.74699915     0.35100
C247        C  0.09072597  0.54764364  0.65177873    -0.26600
C248        C  0.09382695  0.49869780  0.61288931    -0.14700
C249        C  0.12764307  0.94738710  0.61592584     0.35900
C250        C  0.15827041  0.94725918  0.65727834    -0.26100
C251        C  0.15636448  0.49714329  0.69674014    -0.15300
C252        C  0.12030913  0.54655954  0.69387150     0.37000
N253        N  0.11304532  0.59578002  0.73409907    -0.89600
H254        H  0.06408800  0.58623262  0.65044838     0.18100
H255        H  0.18250791  0.90558513  0.65876395     0.18100
N256        N  0.13146881  0.89601502  0.57655714    -0.88600
H257        H  0.08138898  0.08732979  0.75080246     0.35500
H258        H  0.11296261  0.64575782  0.71654333     0.40600
H259        H  0.10500950  0.86177544  0.58257932     0.40200
H260        H  0.16056515  0.36605401  0.58170354     0.35100
C261        C  0.28551725  0.36289405  0.71670143    -0.23400
C262        C  0.27793681  0.30738899  0.75365360    -0.14700
C263        C  0.24229885  0.31632103  0.79000809     0.35900
C264        C  0.21450669  0.37450240  0.78651972    -0.26100
C265        C  0.21828008  0.42545083  0.74548777    -0.15300
C266        C  0.25484048  0.41808390  0.70978834     0.37000
N267        N  0.26216282  0.46840546  0.66759720    -0.89600
H268        H  0.31529634  0.36485359  0.69245878     0.18100
H269        H  0.19048869  0.37850115  0.81809778     0.18100
N270        N  0.23348389  0.26625442  0.83142919    -0.88600
H271        H  0.29359210  0.48999852  0.67220726     0.35500
H272        H  0.26263917  0.44257574  0.63221289     0.40600
H273        H  0.23547598  0.29044768  0.86739498     0.40200
H274        H  0.20098562  0.24836117  0.82746633     0.35100
C275        C  0.29177210  0.10930609  0.76698721    -0.26600
C276        C  0.27667284  0.17523958  0.74914190    -0.14700
C277        C  0.23690877  0.17711789  0.71899825     0.35900
C278        C  0.21265557  0.11666950  0.71354007    -0.26100
C279        C  0.22146744  0.05559436  0.74394952    -0.15300
C280        C  0.26220136  0.05382754  0.77242666     0.37000
N281        N  0.27361884  0.99706778  0.80804902    -0.89600
H282        H  0.32432849  0.10312586  0.78434422     0.18100
H283        H  0.18622466  0.12036854  0.68562730     0.18100
N284        N  0.22063767  0.23919190  0.69245147    -0.88600
H285        H  0.30451699  0.97658678  0.79638253     0.35500
H286        H  0.27703972  0.01621806  0.84563443     0.40600
H287        H  0.21778490  0.22996476  0.65238879     0.40200
H288        H  0.18865511  0.25009216  0.70715421     0.35100
C289        C  0.36433300  0.29729836  0.80905398    -0.26600
C290        C  0.33263163  0.24336325  0.80894101    -0.14700
C291        C  0.33029495  0.19902704  0.85621927     0.35900
C292        C  0.36476560  0.20081761  0.89290371    -0.26100
C293        C  0.39814004  0.25045434  0.88927521    -0.15300
C294        C  0.39663669  0.30119472  0.84782476     0.37000
N295        N  0.42902190  0.35497930  0.84195149    -0.89600
H296        H  0.36607196  0.33474370  0.77617848     0.18100
H297        H  0.36409487  0.16449993  0.92659715     0.18100
N298        N  0.29422993  0.15357237  0.87153936    -0.88600
H299        H  0.46088061  0.33223822  0.84128615     0.35500
H300        H  0.42614305  0.38701005  0.87401299     0.40600
H301        H  0.26655795  0.15945304  0.84809749     0.40200
H302        H  0.28263543  0.16762229  0.90867600     0.35100
C303        C  0.41444499  0.20824542  0.66953212    -0.26600
C304        C  0.40101984  0.23537407  0.62042574    -0.14700
C305        C  0.35594549  0.25383793  0.61296443     0.35900
C306        C  0.32642454  0.24968356  0.65603690    -0.26100
C307        C  0.34074717  0.23340413  0.70804642    -0.15300
C308        C  0.38485677  0.20515647  0.71281820     0.37000
N309        N  0.39960043  0.16994923  0.76023116    -0.89600
H310        H  0.44835436  0.18904781  0.67441231     0.18100
H311        H  0.29230349  0.26409065  0.64853458     0.18100
N312        N  0.33853406  0.27558798  0.56239622    -0.88600
H313        H  0.42848455  0.19398303  0.77253510     0.35500
H314        H  0.40805376  0.11885296  0.75156910     0.40600
H315        H  0.36280616  0.27436741  0.53262801     0.40200
H316        H  0.32781115  0.32720958  0.56471896     0.35100
C317        C  0.86932271  0.06185401  0.80132965    -0.26600
C318        C  0.84071435  0.50444682  0.79737401    -0.14700
C319        C  0.84765919  0.44748098  0.83419880     0.35900
C320        C  0.87866301  0.45264900  0.87469854    -0.26100
C321        C  0.90496162  0.51155886  0.87949521    -0.15300
C322        C  0.90013617  0.06670839  0.84169220     0.37000
N323        N  0.92669404  0.12784568  0.84201553    -0.89600
H324        H  0.86711442  0.10481369  0.77264420     0.18100
H325        H  0.88279070  0.40870233  0.90219789     0.18100
N326        N  0.82643464  0.38202834  0.82950466    -0.88600
H327        H  0.96039255  0.11327341  0.84061147     0.35500
H328        H  0.91986462  0.15363508  0.87663590     0.40600
H329        H  0.80936248  0.37003561  0.86478173     0.40200
H330        H  0.85111015  0.34383541  0.82491825     0.35100
C331        C  0.90157150  0.95566632  0.64924514    -0.26600
C332        C  0.90376549  0.51374234  0.61458874    -0.14700
C333        C  0.87564072  0.57143221  0.62432486     0.35900
C334        C  0.84551489  0.56860280  0.66696501    -0.26100
C335        C  0.84124860  0.50870955  0.70075095    -0.15300
C336        C  0.87199531  0.95313444  0.69227957     0.37000
N337        N  0.87349897  0.89323378  0.72734015    -0.89600
H338        H  0.92388065  0.91176444  0.64376633     0.18100
H339        H  0.82650715  0.61535588  0.67383814     0.18100
N340        N  0.87639402  0.63370309  0.59166820    -0.88600
H341        H  0.90552464  0.88906568  0.74297807     0.35500
H342        H  0.86819539  0.84923807  0.70563540     0.40600
H343        H  0.87078646  0.62099309  0.55274476     0.40200
H344        H  0.90764293  0.65648144  0.59426628     0.35100
C345        C  0.77486781  0.11852066  0.79155071    -0.26600
C346        C  0.77653900  0.07246967  0.74945015    -0.14700
C347        C  0.74718775  0.08787379  0.70719321     0.35900
C348        C  0.72056688  0.14851952  0.70612528    -0.26100
C349        C  0.71861682  0.19432593  0.74836702    -0.15300
C350        C  0.74810744  0.17912668  0.79052676     0.37000
N351        N  0.75025142  0.22445650  0.83368552    -0.89600
H352        H  0.79354095  0.10781770  0.82695356     0.18100
H353        H  0.70208363  0.15932455  0.67059111     0.18100
N354        N  0.74491456  0.04255385  0.66402883    -0.88600
H355        H  0.78309035  0.24131359  0.83625908     0.35500
H356        H  0.74247618  0.19596249  0.86839446     0.40600
H357        H  0.75272434  0.07098363  0.62930472     0.40200
H358        H  0.71204304  0.02579143  0.66149082     0.35100
C359        C  0.71788190  0.37049963  0.79067679    -0.26600
C360        C  0.71770966  0.32427666  0.74873419    -0.14700
C361        C  0.74904968  0.33731984  0.70734564     0.35900
C362        C  0.77584439  0.39665940  0.70660165    -0.26100
C363        C  0.77617679  0.44265409  0.74867936    -0.15300
C364        C  0.74459084  0.42994644  0.78984788     0.37000
N365        N  0.74036345  0.47641430  0.83229461    -0.89600
H366        H  0.69780508  0.36104468  0.82567183     0.18100
H367        H  0.79598831  0.40609713  0.67165242     0.18100
N368        N  0.75321678  0.29099837  0.66480091    -0.88600
H369        H  0.70755830  0.49545237  0.83306639     0.35500
H370        H  0.74583667  0.44845098  0.86773020     0.40600
H371        H  0.74769365  0.31908458  0.62943084     0.40200
H372        H  0.78602681  0.27198264  0.66391393     0.35100
C373        C  0.64972599  0.19679565  0.83082613    -0.26600
C374        C  0.65346882  0.25697696  0.79739611    -0.14700
C375        C  0.62211720  0.31177393  0.80609795     0.35900
C376        C  0.59233899  0.30811905  0.84907110    -0.26100
C377        C  0.59055417  0.24948317  0.88318521    -0.15300
C378        C  0.61942147  0.19266124  0.87313350     0.37000
N379        N  0.61920900  0.12971070  0.90504153    -0.89600
H380        H  0.66913301  0.15050718  0.82372791     0.18100
H381        H  0.56951047  0.35130539  0.85483176     0.18100
N382        N  0.62012613  0.37183383  0.77122536    -0.88600
H383        H  0.58843490  0.10571949  0.90158322     0.35500
H384        H  0.62428285  0.14165491  0.94423670     0.40600
H385        H  0.62490453  0.41580341  0.79313720     0.40200
H386        H  0.58811615  0.37532990  0.75549258     0.35100
C387        C  0.61588297  0.30828333  0.62234788    -0.26600
C388        C  0.59087864  0.24788853  0.61793867    -0.14700
C389        C  0.59580950  0.19414524  0.65678523     0.35900
C390        C  0.62585822  0.20142957  0.69757037    -0.26100
C391        C  0.65360469  0.26004497  0.70091886    -0.15300
C392        C  0.64610746  0.31591766  0.66338164     0.37000
N393        N  0.66593969  0.38248567  0.66786660    -0.89600
H394        H  0.61123845  0.35134270  0.59415471     0.18100
H395        H  0.62841376  0.15925237  0.72687042     0.18100
N396        N  0.56993816  0.13223850  0.65717421    -0.88600
H397        H  0.64043739  0.41952006  0.67172751     0.35500
H398        H  0.68319163  0.39482010  0.63277351     0.40600
H399        H  0.57759983  0.10537051  0.62325766     0.40200
H400        H  0.53609803  0.14600811  0.65748119     0.35100
C401        C  0.68624512  0.75973423  0.24862474    -0.02800
C402        C  0.80825072  0.00639685  0.24933392    -0.02800
C403        C  0.30676585  0.73906052  0.25549853    -0.02800
C404        C  0.18861556  0.99292751  0.24503975    -0.02800
O405        O  0.95444070  0.56764629  0.43801913    -0.73200
O406        O  0.04676056  0.56050475  0.05169429    -0.74200
O407        O  0.04906300  0.56107531  0.43988983    -0.62800
O408        O  0.95245557  0.56851303  0.05016526    -0.71300
O409        O  0.95070993  0.95373427  0.05446194    -0.70800
O410        O  0.04601919  0.94611330  0.44303591    -0.62100
O411        O  0.04485186  0.94557131  0.05386373    -0.74600
O412        O  0.95173052  0.95297472  0.44269219    -0.73300
Cu413      Cu  0.00072390  0.56850051  0.99476490     1.04600
Cu414      Cu  0.99814273  0.94568564  0.99858867     1.04300
C415        C  0.93859614  0.01107522  0.42206418     0.93000
C416        C  0.06048614  0.00167478  0.07050876     0.92100
C417        C  0.06301840  0.00241142  0.42434774     0.84200
C418        C  0.93678776  0.01226026  0.07057752     0.90500
O419        O  0.54121150  0.80296155  0.05664574    -0.73200
O420        O  0.44768327  0.80538556  0.44658157    -0.74200
O421        O  0.44670179  0.79891794  0.05844499    -0.62800
O422        O  0.54191680  0.80561689  0.44456317    -0.71300
O423        O  0.54281945  0.69084120  0.44602927    -0.70800
O424        O  0.45073231  0.68370791  0.06035630    -0.62100
O425        O  0.44817203  0.69040696  0.44844184    -0.74600
O426        O  0.54459286  0.68817728  0.05798916    -0.73300
Cu427      Cu  0.49434571  0.80723624  0.00154839     1.04600
Cu428      Cu  0.49668696  0.68428149  0.00315236     1.04300
C429        C  0.55745538  0.74582315  0.07539573     0.93000
C430        C  0.43309840  0.74872439  0.42985669     0.92100
C431        C  0.43424868  0.73977493  0.07751657     0.84200
C432        C  0.55712483  0.74854961  0.42692495     0.90500
C433        C  0.16384322  0.54074124  0.33552878    -0.26600
C434        C  0.15777043  0.99341468  0.29515483    -0.14700
C435        C  0.12098394  0.94750395  0.30064469     0.35900
C436        C  0.09172790  0.95118902  0.34366860    -0.26100
C437        C  0.09764663  0.99906375  0.38269149    -0.15300
C438        C  0.13518115  0.54296021  0.37954669     0.37000
N439        N  0.14606280  0.58934024  0.42033708    -0.89600
H440        H  0.19117118  0.57661479  0.33408958     0.18100
H441        H  0.06342552  0.91675891  0.34594262     0.18100
N442        N  0.11334711  0.89620552  0.26259683    -0.88600
H443        H  0.17840497  0.57677636  0.43265976     0.35500
H444        H  0.12610242  0.58117452  0.45382747     0.40600
H445        H  0.11360433  0.84732806  0.28191894     0.40200
H446        H  0.08159875  0.90501465  0.24699337     0.35100
C447        C  0.09068152  0.04767756  0.15177631    -0.26600
C448        C  0.09377983  0.99873052  0.11288695    -0.14700
C449        C  0.12766307  0.44735962  0.11592341     0.35900
C450        C  0.15829446  0.44723613  0.15727275    -0.26100
C451        C  0.15632419  0.99717765  0.19673038    -0.15300
C452        C  0.12026934  0.04659498  0.19386552     0.37000
N453        N  0.11300777  0.09581207  0.23409592    -0.89600
H454        H  0.06404215  0.08626433  0.15044917     0.18100
H455        H  0.18253207  0.40556211  0.15876004     0.18100
N456        N  0.13148437  0.39598174  0.07655872    -0.88600
H457        H  0.08142124  0.58732127  0.25079407     0.35500
H458        H  0.11292258  0.14579111  0.21654189     0.40600
H459        H  0.10502169  0.36174889  0.08258274     0.40200
H460        H  0.16052525  0.86610412  0.08168347     0.35100
C461        C  0.28547721  0.86293086  0.21667172    -0.23400
C462        C  0.27790385  0.80742203  0.25362218    -0.14700
C463        C  0.24225949  0.81633402  0.28997160     0.35900
C464        C  0.21446255  0.87451043  0.28648895    -0.26100
C465        C  0.21823670  0.92547081  0.24546597    -0.15300
C466        C  0.25479596  0.91811398  0.20976336     0.37000
N467        N  0.26211343  0.96844147  0.16757490    -0.89600
H468        H  0.31525607  0.86490261  0.19242936     0.18100
H469        H  0.19044238  0.87849788  0.31806562     0.18100
N470        N  0.23344482  0.76625342  0.33138331    -0.88600
H471        H  0.29354118  0.99003927  0.17218442     0.35500
H472        H  0.26259027  0.94261547  0.13218858     0.40600
H473        H  0.23543004  0.79043667  0.36735397     0.40200
H474        H  0.20094909  0.74835377  0.32741215     0.35100
C475        C  0.29179476  0.60934532  0.26695082    -0.26600
C476        C  0.27667848  0.67527118  0.24910874    -0.14700
C477        C  0.23691673  0.67712511  0.21896171     0.35900
C478        C  0.21267760  0.61666308  0.21350520    -0.26100
C479        C  0.22149945  0.55559562  0.24391981    -0.15300
C480        C  0.26223794  0.55384694  0.27238866     0.37000
N481        N  0.27367442  0.49708689  0.30800169    -0.89600
H482        H  0.32435310  0.60318544  0.28430654     0.18100
H483        H  0.18624855  0.62034611  0.18558953     0.18100
N484        N  0.22063390  0.73918780  0.19240950    -0.88600
H485        H  0.30457540  0.47662673  0.29632524     0.35500
H486        H  0.27709654  0.51623116  0.34558887     0.40600
H487        H  0.21778695  0.72995442  0.15234699     0.40200
H488        H  0.18864796  0.75007246  0.20710798     0.35100
C489        C  0.36427919  0.79740277  0.30905694    -0.26600
C490        C  0.33260158  0.74343450  0.30892547    -0.14700
C491        C  0.33027318  0.69908356  0.35619547     0.35900
C492        C  0.36473957  0.70088705  0.39288290    -0.26100
C493        C  0.39809679  0.75055244  0.38926953    -0.15300
C494        C  0.39657483  0.80131601  0.34783575     0.37000
N495        N  0.42893316  0.85514276  0.34198690    -0.89600
H496        H  0.36600784  0.83486178  0.27618953     0.18100
H497        H  0.36407944  0.66455210  0.42656609     0.18100
N498        N  0.29422059  0.65359864  0.37150256    -0.88600
H499        H  0.46080274  0.83244126  0.34131337     0.35500
H500        H  0.42603580  0.88714622  0.37406324     0.40600
H501        H  0.26654885  0.65947379  0.34806098     0.40200
H502        H  0.28262048  0.66762527  0.40864331     0.35100
C503        C  0.41445904  0.70838688  0.16953558    -0.26600
C504        C  0.40102846  0.73547887  0.12042077    -0.14700
C505        C  0.35594855  0.75389886  0.11294976     0.35900
C506        C  0.32642464  0.74973531  0.15601877    -0.26100
C507        C  0.34074549  0.73348282  0.20803293    -0.15300
C508        C  0.38486657  0.70528369  0.21281764     0.37000
N509        N  0.39961780  0.67010339  0.26023796    -0.89600
H510        H  0.44837456  0.68922023  0.17442351     0.18100
H511        H  0.29229988  0.76411110  0.14850898     0.18100
N512        N  0.33853448  0.77561109  0.06237459    -0.88600
H513        H  0.42849049  0.69416963  0.27254268     0.35500
H514        H  0.40809288  0.61901245  0.25158546     0.40600
H515        H  0.36281112  0.77440824  0.03261121     0.40200
H516        H  0.32778739  0.82722263  0.06468510     0.35100
C517        C  0.86933950  0.56190354  0.30134668    -0.26600
C518        C  0.84069899  0.00442946  0.29738632    -0.14700
C519        C  0.84763678  0.94746465  0.33421316     0.35900
C520        C  0.87864122  0.95262832  0.37471270    -0.26100
C521        C  0.90494732  0.01153137  0.37950301    -0.15300
C522        C  0.90015643  0.56675808  0.34170794     0.37000
N523        N  0.92670584  0.62790364  0.34203807    -0.89600
H524        H  0.86712557  0.60486593  0.27266419     0.18100
H525        H  0.88276343  0.90868520  0.40221660     0.18100
N526        N  0.82640469  0.88201796  0.32952068    -0.88600
H527        H  0.96040616  0.61334287  0.34062528     0.35500
H528        H  0.91987766  0.65367736  0.37666573     0.40600
H529        H  0.80933224  0.87003039  0.36479896     0.40200
H530        H  0.85107576  0.84381907  0.32493333     0.35100
C531        C  0.90159520  0.45569260  0.14925300    -0.26600
C532        C  0.90372907  0.01373619  0.11459109    -0.14700
C533        C  0.87561404  0.07143296  0.12433920     0.35900
C534        C  0.84549448  0.06860404  0.16698421    -0.26100
C535        C  0.84122834  0.00870742  0.20076589    -0.15300
C536        C  0.87202069  0.45316496  0.19229011     0.37000
N537        N  0.87352727  0.39326891  0.22735483    -0.89600
H538        H  0.92390593  0.41179195  0.14377700     0.18100
H539        H  0.82649250  0.11536025  0.17386500     0.18100
N540        N  0.87637221  0.13371182  0.09169176    -0.88600
H541        H  0.90555351  0.38910450  0.24299057     0.35500
H542        H  0.86822351  0.34926955  0.20565344     0.40600
H543        H  0.87075676  0.12101490  0.05276688     0.40200
H544        H  0.90762455  0.15647828  0.09428811     0.35100
C545        C  0.77487273  0.61854970  0.29154853    -0.26600
C546        C  0.77655619  0.57249603  0.24945028    -0.14700
C547        C  0.74720599  0.58788538  0.20718908     0.35900
C548        C  0.72057453  0.64852036  0.20611533    -0.26100
C549        C  0.71861019  0.69432764  0.24835600    -0.15300
C550        C  0.74809700  0.67914054  0.29052178     0.37000
N551        N  0.75022459  0.72447060  0.33368172    -0.89600
H552        H  0.79354646  0.60785793  0.32695253     0.18100
H553        H  0.70209476  0.65931626  0.17057736     0.18100
N554        N  0.74494407  0.54256078  0.16402638    -0.88600
H555        H  0.78305926  0.74134406  0.33626211     0.35500
H556        H  0.74244984  0.69597171  0.36838850     0.40600
H557        H  0.75275183  0.57099114  0.12930194     0.40200
H558        H  0.71207577  0.52578479  0.16148567     0.35100
C559        C  0.71785389  0.87049854  0.29066642    -0.26600
C560        C  0.71769188  0.82427663  0.24872242    -0.14700
C561        C  0.74903796  0.83732326  0.20734163     0.35900
C562        C  0.77582773  0.89666578  0.20660432    -0.26100
C563        C  0.77615688  0.94265295  0.24868686    -0.15300
C564        C  0.74456581  0.92994191  0.28984900     0.37000
N565        N  0.74033512  0.97640321  0.33229953    -0.89600
H566        H  0.69776871  0.86104275  0.32565476     0.18100
H567        H  0.79597140  0.90610945  0.17165600     0.18100
N568        N  0.75321487  0.79100413  0.16479628    -0.88600
H569        H  0.70753084  0.99544531  0.33306688     0.35500
H570        H  0.74580200  0.94843317  0.36773374     0.40600
H571        H  0.74769648  0.81909078  0.12942543     0.40200
H572        H  0.78602625  0.77199254  0.16391648     0.35100
C573        C  0.64969664  0.69679296  0.33079392    -0.26600
C574        C  0.65344404  0.75697192  0.29736267    -0.14700
C575        C  0.62208692  0.81176603  0.30605157     0.35900
C576        C  0.59230305  0.80811591  0.34901918    -0.26100
C577        C  0.59051590  0.74948580  0.38313823    -0.15300
C578        C  0.61938234  0.69266011  0.37309252     0.37000
N579        N  0.61915888  0.62970777  0.40499798    -0.89600
H580        H  0.66910881  0.65050695  0.32370328     0.18100
H581        H  0.56947318  0.85130253  0.35477291     0.18100
N582        N  0.62009737  0.87181983  0.27117297    -0.88600
H583        H  0.58838180  0.60572700  0.40153288     0.35500
H584        H  0.62422852  0.64164766  0.44419468     0.40600
H585        H  0.62486999  0.91579438  0.29308133     0.40200
H586        H  0.58808967  0.87530874  0.25543346     0.35100
C587        C  0.61588866  0.80828455  0.12231439    -0.26600
C588        C  0.59088579  0.74788999  0.11789900    -0.14700
C589        C  0.59581883  0.69413804  0.15673831     0.35900
C590        C  0.62586366  0.70141899  0.19752730    -0.26100
C591        C  0.65360476  0.76003849  0.20088598    -0.15300
C592        C  0.64610997  0.81591498  0.16335072     0.37000
N593        N  0.66594041  0.88248377  0.16784017    -0.89600
H594        H  0.61124417  0.85134859  0.09412530     0.18100
H595        H  0.62841851  0.65923809  0.22682444     0.18100
N596        N  0.56995318  0.63222605  0.15711688    -0.88600
H597        H  0.64043686  0.91951756  0.17169930     0.35500
H598        H  0.68319466  0.89482086  0.13275008     0.40600
H599        H  0.57761725  0.60536972  0.12319508     0.40200
H600        H  0.53611192  0.64598750  0.15742762     0.35100
C601        C  0.68624180  0.75972059  0.74861414    -0.02800
C602        C  0.80824762  0.00638336  0.74932092    -0.02800
C603        C  0.30676886  0.73905101  0.75550846    -0.02800
C604        C  0.18861818  0.99291829  0.74505255    -0.02800
O605        O  0.95442920  0.56764212  0.93801257    -0.73200
O606        O  0.04677499  0.56050345  0.55169745    -0.74200
O607        O  0.04905157  0.56106982  0.93988684    -0.62800
O608        O  0.95246924  0.56851081  0.55017148    -0.71300
O609        O  0.95072427  0.95373184  0.55446430    -0.70800
O610        O  0.04600713  0.94610797  0.94303620    -0.62100
O611        O  0.04486647  0.94556981  0.55386377    -0.74600
O612        O  0.95171863  0.95297068  0.94268916    -0.73300
Cu613      Cu  0.00073687  0.56850210  0.49476993     1.04600
Cu614      Cu  0.99815622  0.94568712  0.49858993     1.04300
C615        C  0.93858532  0.01107016  0.92205843     0.93000
C616        C  0.06050071  0.00167240  0.57051025     0.92100
C617        C  0.06300755  0.00240498  0.92434769     0.84200
C618        C  0.93680077  0.01225667  0.57058062     0.90500
O619        O  0.54120153  0.80295739  0.55664448    -0.73200
O620        O  0.44769411  0.80538027  0.94658211    -0.74200
O621        O  0.44669186  0.79891096  0.55844491    -0.62800
O622        O  0.54192666  0.80560879  0.94456378    -0.71300
O623        O  0.54282949  0.69083286  0.94603642    -0.70800
O624        O  0.45072384  0.68370127  0.56035020    -0.62100
O625        O  0.44818215  0.69040137  0.94844819    -0.74600
O626        O  0.54458456  0.68817346  0.55798073    -0.73300
Cu627      Cu  0.49433534  0.80723691  0.50154792     1.04600
Cu628      Cu  0.49667761  0.68428260  0.50314498     1.04300
C629        C  0.55744696  0.74581773  0.57539011     0.93000
C630        C  0.43310927  0.74871763  0.92985988     0.92100
C631        C  0.43423999  0.73976601  0.57751417     0.84200
C632        C  0.55713368  0.74853975  0.92692756     0.90500
C633        C  0.16384050  0.54072923  0.83554055    -0.26600
C634        C  0.15777021  0.99340349  0.79516546    -0.14700
C635        C  0.12098304  0.94749352  0.80065134     0.35900
C636        C  0.09172336  0.95117975  0.84367197    -0.26100
C637        C  0.09763915  0.99905486  0.88269533    -0.15300
C638        C  0.13517479  0.54294924  0.87955515     0.37000
N639        N  0.14605392  0.58932855  0.92034699    -0.89600
H640        H  0.19116891  0.57660185  0.83410467     0.18100
H641        H  0.06342045  0.91675063  0.84594287     0.18100
N642        N  0.11334878  0.89619543  0.76260242    -0.88600
H643        H  0.17839425  0.57676295  0.93267364     0.35500
H644        H  0.12609014  0.58116389  0.95383537     0.40600
H645        H  0.11360395  0.84731813  0.78192435     0.40200
H646        H  0.08160169  0.90500554  0.74699534     0.35100
C647        C  0.09069169  0.04767165  0.65178031    -0.26600
C648        C  0.09379277  0.99872634  0.61289008    -0.14700
C649        C  0.12767566  0.44735501  0.61592863     0.35900
C650        C  0.15830394  0.44722936  0.65728138    -0.26100
C651        C  0.15633001  0.99716856  0.69674051    -0.15300
C652        C  0.12027559  0.04658615  0.69387312     0.37000
N653        N  0.11301107  0.09580169  0.73410397    -0.89600
H654        H  0.06405268  0.08625892  0.65045137     0.18100
H655        H  0.18254210  0.40555604  0.65877000     0.18100
N656        N  0.13149924  0.39597817  0.57656339    -0.88600
H657        H  0.08142320  0.58731077  0.75079826     0.35500
H658        H  0.11292780  0.14578131  0.71655133     0.40600
H659        H  0.10503566  0.36174656  0.58258385     0.40200
H660        H  0.16053836  0.86609813  0.58169159     0.35100
C661        C  0.28548448  0.86292705  0.71669121    -0.23400
C662        C  0.27790721  0.80741318  0.75363584    -0.14700
C663        C  0.24225997  0.81632179  0.78998208     0.35900
C664        C  0.21446361  0.87449922  0.78650012    -0.26100
C665        C  0.21824070  0.92546292  0.74547995    -0.15300
C666        C  0.25480325  0.91810976  0.70978145     0.37000
N667        N  0.26212377  0.96843995  0.66759563    -0.89600
H668        H  0.31526607  0.86490145  0.69245343     0.18100
H669        H  0.19044043  0.87848361  0.81807397     0.18100
N670        N  0.23344033  0.76623556  0.83138817    -0.88600
H671        H  0.29355107  0.99003806  0.67220980     0.35500
H672        H  0.26260394  0.94261643  0.63220852     0.40600
H673        H  0.23542185  0.79041277  0.86736132     0.40200
H674        H  0.20094464  0.74833757  0.82741033     0.35100
C675        C  0.29179529  0.60933668  0.76696823    -0.26600
C676        C  0.27668105  0.67526186  0.74912165    -0.14700
C677        C  0.23692069  0.67711506  0.71897248     0.35900
C678        C  0.21268118  0.61665343  0.71351696    -0.26100
C679        C  0.22150061  0.55558795  0.74393519    -0.15300
C680        C  0.26223701  0.55384051  0.77240766     0.37000
N681        N  0.27366982  0.49708360  0.80802533    -0.89600
H682        H  0.32435261  0.60317608  0.78432612     0.18100
H683        H  0.18625395  0.62033563  0.68559893     0.18100
N684        N  0.22063916  0.73917706  0.69241817    -0.88600
H685        H  0.30457122  0.47662010  0.79635294     0.35500
H686        H  0.27709005  0.51623203  0.84561118     0.40600
H687        H  0.21779300  0.72994181  0.65235606     0.40200
H688        H  0.18865293  0.75006315  0.70711535     0.35100
C689        C  0.36429208  0.79738608  0.80905689    -0.26600
C690        C  0.33260945  0.74342442  0.80893216    -0.14700
C691        C  0.33027999  0.69908000  0.85620586     0.35900
C692        C  0.36474739  0.70088406  0.89289183    -0.26100
C693        C  0.39810810  0.75054303  0.88927255    -0.15300
C694        C  0.39658970  0.80129901  0.84783346     0.37000
N695        N  0.42895336  0.85511720  0.84197744    -0.89600
H696        H  0.36602242  0.83484023  0.77618649     0.18100
H697        H  0.36408549  0.66455489  0.92657856     0.18100
N698        N  0.29422590  0.65360092  0.87151848    -0.88600
H699        H  0.46082081  0.83240770  0.84130595     0.35500
H700        H  0.42606010  0.88712785  0.87404977     0.40600
H701        H  0.26655473  0.65946988  0.84807578     0.40200
H702        H  0.28262569  0.66763731  0.90865700     0.35100
C703        C  0.41445162  0.70835940  0.66953130    -0.26600
C704        C  0.40102127  0.73546553  0.62042020    -0.14700
C705        C  0.35594322  0.75390167  0.61295525     0.35900
C706        C  0.32642180  0.74973962  0.65602659    -0.26100
C707        C  0.34074409  0.73347306  0.70803821    -0.15300
C708        C  0.38486179  0.70525915  0.71281621     0.37000
N709        N  0.39961236  0.67007089  0.76023363    -0.89600
H710        H  0.44836522  0.68918203  0.67441460     0.18100
H711        H  0.29229862  0.76412814  0.64852053     0.18100
N712        N  0.33852824  0.77562927  0.56238385    -0.88600
H713        H  0.42848817  0.69412804  0.77253725     0.35500
H714        H  0.40808128  0.61897827  0.75157767     0.40600
H715        H  0.36280215  0.77442159  0.53261738     0.40200
H716        H  0.32778970  0.82724410  0.56470045     0.35100
C717        C  0.86933434  0.56189247  0.80133539    -0.26600
C718        C  0.84069527  0.00441672  0.79737371    -0.14700
C719        C  0.84763342  0.94745203  0.83420046     0.35900
C720        C  0.87863570  0.95261800  0.87470191    -0.26100
C721        C  0.90493890  0.01152379  0.87949475    -0.15300
C722        C  0.90014803  0.56675036  0.84169960     0.37000
N723        N  0.92669357  0.62789974  0.84203302    -0.89600
H724        H  0.86712058  0.60485454  0.77265261     0.18100
H725        H  0.88275827  0.90867477  0.90220563     0.18100
N726        N  0.82640380  0.88200359  0.82950627    -0.88600
H727        H  0.96039507  0.61334374  0.84062269     0.35500
H728        H  0.91986170  0.65367149  0.87666043     0.40600
H729        H  0.80933021  0.87001449  0.86478304     0.40200
H730        H  0.85107669  0.84380637  0.82492062     0.35100
C731        C  0.90160023  0.45568374  0.64924906    -0.26600
C732        C  0.90373761  0.01372952  0.61458962    -0.14700
C733        C  0.87561900  0.07142352  0.62433352     0.35900
C734        C  0.84549409  0.06859113  0.66697329    -0.26100
C735        C  0.84122630  0.00869374  0.70075389    -0.15300
C736        C  0.87201994  0.45315205  0.69228060     0.37000
N737        N  0.87352308  0.39325361  0.72734300    -0.89600
H738        H  0.92391251  0.41178434  0.64377542     0.18100
H739        H  0.82648991  0.11534593  0.67385169     0.18100
N740        N  0.87637889  0.13370295  0.59168682    -0.88600
H741        H  0.90554768  0.38908860  0.74298390     0.35500
H742        H  0.86822237  0.34925606  0.70563880     0.40600
H743        H  0.87076885  0.12100624  0.55276087     0.40200
H744        H  0.90763018  0.15647190  0.59428871     0.35100
C745        C  0.77486916  0.61853574  0.79153582    -0.26600
C746        C  0.77655294  0.57248262  0.74943718    -0.14700
C747        C  0.74720303  0.58787265  0.70717590     0.35900
C748        C  0.72057129  0.64850759  0.70610278    -0.26100
C749        C  0.71860711  0.69431443  0.74834386    -0.15300
C750        C  0.74809430  0.67912727  0.79050908     0.37000
N751        N  0.75022308  0.72445780  0.83366860    -0.89600
H752        H  0.79354200  0.60784327  0.82694031     0.18100
H753        H  0.70209134  0.65930393  0.67056506     0.18100
N754        N  0.74494147  0.54254879  0.66401268    -0.88600
H755        H  0.78305812  0.74133059  0.83624814     0.35500
H756        H  0.74244864  0.69595956  0.86837588     0.40600
H757        H  0.75274943  0.57097951  0.62928870     0.40200
H758        H  0.71207308  0.52577291  0.66147141     0.35100
C759        C  0.71785152  0.87048487  0.79065512    -0.26600
C760        C  0.71768857  0.82426323  0.74871104    -0.14700
C761        C  0.74903366  0.83731041  0.70732909     0.35900
C762        C  0.77582430  0.89665225  0.70659174    -0.26100
C763        C  0.77615385  0.94263943  0.74867421    -0.15300
C764        C  0.74456342  0.92992829  0.78983708     0.37000
N765        N  0.74033362  0.97638939  0.83228781    -0.89600
H766        H  0.69776724  0.86102875  0.82564414     0.18100
H767        H  0.79596837  0.90609569  0.67164363     0.18100
N768        N  0.75320851  0.79099268  0.66478263    -0.88600
H769        H  0.70752963  0.99543150  0.83305629     0.35500
H770        H  0.74580125  0.94841871  0.86772218     0.40600
H771        H  0.74768913  0.81908065  0.62941268     0.40200
H772        H  0.78601969  0.77198015  0.66390083     0.35100
C773        C  0.64969603  0.69677760  0.83078505    -0.26600
C774        C  0.65344204  0.75695681  0.79735355    -0.14700
C775        C  0.62208557  0.81175090  0.80604501     0.35900
C776        C  0.59230509  0.80810175  0.84901586    -0.26100
C777        C  0.59052094  0.74947303  0.88313666    -0.15300
C778        C  0.61938553  0.69264622  0.87308775     0.37000
N779        N  0.61916427  0.62969474  0.90499428    -0.89600
H780        H  0.66910710  0.65049110  0.82369234     0.18100
H781        H  0.56947575  0.85128861  0.85477122     0.18100
N782        N  0.62009363  0.87180423  0.77116619    -0.88600
H783        H  0.58838637  0.60571519  0.90153440     0.35500
H784        H  0.62423827  0.64163587  0.94419005     0.40600
H785        H  0.62486792  0.91577905  0.79307329     0.40200
H786        H  0.58808451  0.87529272  0.75542980     0.35100
C787        C  0.61588132  0.80827650  0.62230831    -0.26600
C788        C  0.59087927  0.74788150  0.61789141    -0.14700
C789        C  0.59581513  0.69412618  0.65672739     0.35900
C790        C  0.62586049  0.70140580  0.69751613    -0.26100
C791        C  0.65360051  0.76002620  0.70087633    -0.15300
C792        C  0.64610391  0.81590492  0.66334350     0.37000
N793        N  0.66593383  0.88247389  0.66783437    -0.89600
H794        H  0.61123525  0.85134245  0.59412132     0.18100
H795        H  0.62841686  0.65922312  0.72681151     0.18100
N796        N  0.56995240  0.63221145  0.65710253    -0.88600
H797        H  0.64043038  0.91950683  0.67169534     0.35500
H798        H  0.68318732  0.89481318  0.63274374     0.40600
H799        H  0.57761682  0.60536057  0.62317832     0.40200
H800        H  0.53611035  0.64596910  0.65741545     0.35100
loop_ 
_geom_bond_atom_site_label_1 
_geom_bond_atom_site_label_2 
_geom_bond_distance 
_geom_bond_site_symmetry_2 
_ccdc_geom_bond_type 
C1          C149   1.581       .  S
C1          C160   1.572       .  S
C1          C174   1.570       .  S
C1          C191   1.570       .  S
C2          C118   1.572       .  S
C2          C135   1.570       .  S
C2          C163   1.573       .  S
C2          C546   1.580       .  S
C3           C62   1.567       .  S
C3           C76   1.551       .  S
C3           C90   1.579       .  S
C3          C107   1.574       .  S
C4           C34   1.564       .  S
C4           C51   1.574       .  S
C4           C65   1.565       .  S
C4          C479   1.569       .  S
O5         Cu213   2.018   1_655  S
O5          C415   1.279       .  A
O6          Cu13   2.015   1_554  S
O6          C416   1.279       .  A
O7         Cu213   2.005       .  S
O7          C417   1.277       .  A
O8          Cu13   2.005   1_654  S
O8          C418   1.276       .  A
O9          Cu14   2.005   1_554  S
O9           C18   1.279       .  A
O10        Cu214   1.999   1_455  S
O10          C17   1.277       .  A
O11         Cu14   1.999   1_454  S
O11          C16   1.275       .  A
O12        Cu214   2.004       .  S
O12          C15   1.278       .  A
Cu13        O205   2.018   1_455  S
Cu13        O207   2.005       .  S
Cu13       Cu414   2.369   1_445  S
Cu14        O210   1.999   1_655  S
Cu14        O212   2.004       .  S
Cu14       Cu413   2.369   1_655  S
C15         O405   1.279       .  A
C15         C121   1.490       .  S
C16         O406   1.279       .  A
C16          C48   1.479       .  S
C17         O407   1.277       .  A
C17          C37   1.475       .  S
C18         O408   1.276       .  A
C18         C132   1.485       .  S
O19         Cu27   1.997       .  S
O19          C29   1.276       .  A
O20        Cu227   1.994       .  S
O20          C30   1.274       .  A
O21         Cu27   2.022       .  S
O21          C31   1.280       .  A
O22        Cu227   2.019       .  S
O22          C32   1.281       .  A
O23        Cu228   1.993       .  S
O23          C32   1.274       .  A
O24         Cu28   1.989       .  S
O24          C31   1.273       .  A
O25        Cu228   2.026       .  S
O25          C30   1.282       .  A
O26         Cu28   2.021       .  S
O26          C29   1.280       .  A
Cu27        O220   1.994   1_554  S
Cu27        O222   2.019   1_554  S
Cu27        Cu28   2.371       .  S
Cu28        O223   1.993   1_554  S
Cu28        O225   2.026   1_554  S
C29         C188   1.487       .  S
C30          C93   1.482       .  S
C31         C104   1.467       .  S
C32         C177   1.486       .  S
C33          C38   1.403       .  A
C33         C434   1.416   1_545  A
C33          H40   1.079       .  S
C34          C35   1.426       .  A
C34         C433   1.416       .  A
C35          C36   1.396       .  A
C35          N42   1.434       .  S
C36          C37   1.397       .  A
C36          H41   1.084       .  S
C37         C438   1.417       .  A
C38         C437   1.416   1_545  A
C38          N39   1.440       .  S
N39          H43   1.046       .  S
N39          H44   1.042       .  S
N42          H45   1.045       .  S
N42          H46   1.046       .  S
C47          C48   1.396       .  A
C47          C52   1.399       .  A
C47          H54   1.084       .  S
C48         C449   1.409       .  A
C49          C50   1.406       .  A
C49         C448   1.409       .  A
C49          N56   1.439       .  S
C50         C451   1.418       .  A
C50          H55   1.076       .  S
C51          C52   1.432       .  A
C51         C450   1.418       .  A
C52          N53   1.435       .  S
N53          H58   1.046       .  S
N53         H457   1.046       .  S
N56          H59   1.045       .  S
N56         H460   1.046       .  S
H57         N453   1.046       .  S
H60         N456   1.046       .  S
C61          C62   1.414       .  A
C61          C66   1.405       .  A
C61          H68   1.078       .  S
C62          C63   1.416       .  A
C63          C64   1.389       .  A
C63          N70   1.424       .  S
C64          C65   1.409       .  A
C64          H69   1.075       .  S
C65          C66   1.422       .  A
C66          N67   1.434       .  S
N67          H71   1.046       .  S
N67          H72   1.046       .  S
N70          H73   1.046       .  S
N70          H74   1.046       .  S
C75          C76   1.404       .  A
C75          C80   1.401       .  A
C75          H82   1.080       .  S
C76          C77   1.426       .  A
C77          C78   1.396       .  A
C77          N84   1.434       .  S
C78          C79   1.407       .  A
C78          H83   1.071       .  S
C79         C404   1.569   1_545  S
C79          C80   1.428       .  A
C80          N81   1.434   1_545  S
N81          H85   1.046       .  S
N81          H86   1.045   1_565  S
N84          H87   1.046       .  S
N84          H88   1.046       .  S
C89          C90   1.419       .  A
C89          C94   1.397       .  A
C89          H96   1.084       .  S
C90          C91   1.448       .  A
C91          C92   1.404       .  A
C91          N98   1.441       .  S
C92          C93   1.394       .  A
C92          H97   1.085       .  S
C93          C94   1.410       .  A
C94          N95   1.433       .  S
N95          H99   1.046       .  S
N95         H100   1.044       .  S
N98         H101   1.031       .  S
N98         H102   1.046       .  S
C103        C104   1.397       .  A
C103        C108   1.403       .  A
C103        H110   1.085       .  S
C104        C105   1.407       .  A
C105        C106   1.399       .  A
C105        N112   1.439       .  S
C106        C107   1.418       .  A
C106        H111   1.074       .  S
C107        C108   1.429       .  A
C108        N109   1.432       .  S
N109        H113   1.046       .  S
N109        H114   1.046       .  S
N112        H115   1.043       .  S
N112        H116   1.046       .  S
C117        C122   1.398       .  A
C117        C518   1.419       .  A
C117        H124   1.084       .  S
C118        C119   1.430       .  A
C118        C517   1.419       .  A
C119        C120   1.405       .  A
C119        N126   1.432       .  S
C120        C121   1.403       .  A
C120        H125   1.084       .  S
C121        C522   1.413       .  A
C122        C521   1.413       .  A
C122        N123   1.433       .  S
N123        H127   1.046       .  S
N123        H128   1.045       .  S
N126        H129   1.046       .  S
N126        H130   1.046       .  S
C131        C136   1.398       .  A
C131        C532   1.399   1_565  A
C131        H138   1.084       .  S
C132        C133   1.415       .  A
C132        C531   1.399       .  A
C133        C134   1.401       .  A
C133        N140   1.433       .  S
C134        C135   1.418       .  A
C134        H139   1.079       .  S
C135        C536   1.425       .  A
C136        C535   1.425   1_565  A
C136        N137   1.431       .  S
N137        H141   1.046       .  S
N137        H142   1.046       .  S
N140        H143   1.046       .  S
N140        H144   1.045       .  S
C145        C146   1.418       .  A
C145        C150   1.408       .  A
C145        H152   1.078       .  S
C146        C402   1.580       .  S
C146        C147   1.418       .  A
C147        C148   1.407       .  A
C147        N154   1.433       .  S
C148        C149   1.418       .  A
C148        H153   1.079       .  S
C149        C150   1.419       .  A
C150        N151   1.433       .  S
N151        H155   1.045       .  S
N151        H156   1.046       .  S
N154        H157   1.046       .  S
N154        H158   1.045       .  S
C159        C160   1.417       .  A
C159        C164   1.407       .  A
C159        H166   1.078       .  S
C160        C161   1.418       .  A
C161        C162   1.407       .  A
C161        N168   1.433       .  S
C162        C163   1.417       .  A
C162        H167   1.078       .  S
C163        C164   1.418       .  A
C164        N165   1.433       .  S
N165        H169   1.045       .  S
N165        H170   1.045       .  S
N168        H171   1.045       .  S
N168        H172   1.046       .  S
C173        C174   1.416       .  A
C173        C178   1.399       .  A
C173        H180   1.079       .  S
C174        C175   1.427       .  A
C175        C176   1.401       .  A
C175        N182   1.431       .  S
C176        C177   1.399       .  A
C176        H181   1.084       .  S
C177        C178   1.416       .  A
C178        N179   1.433       .  S
N179        H183   1.045       .  S
N179        H184   1.046       .  S
N182        H185   1.046       .  S
N182        H186   1.046       .  S
C187        C188   1.403       .  A
C187        C192   1.405       .  A
C187        H194   1.084       .  S
C188        C189   1.411       .  A
C189        C190   1.396       .  A
C189        N196   1.433       .  S
C190        C191   1.419       .  A
C190        H195   1.084       .  S
C191        C192   1.428       .  A
C192        N193   1.432       .  S
N193        H197   1.046       .  S
N193        H198   1.046       .  S
N196        H199   1.045       .  S
N196        H200   1.045       .  S
C201        C349   1.581       .  S
C201        C360   1.572       .  S
C201        C374   1.571       .  S
C201        C391   1.570       .  S
C202        C318   1.572       .  S
C202        C335   1.570       .  S
C202        C746   1.580       .  S
C202        C363   1.573       .  S
C203        C262   1.567       .  S
C203        C276   1.551       .  S
C203        C290   1.579       .  S
C203        C307   1.574       .  S
C204        C234   1.564       .  S
C204        C251   1.574       .  S
C204        C265   1.565       .  S
C204        C679   1.569       .  S
O205        C615   1.279       .  A
O206       Cu213   2.015       .  S
O206        C616   1.279       .  A
O207        C617   1.277       .  A
O208       Cu213   2.005   1_655  S
O208        C618   1.276       .  A
O209       Cu214   2.005       .  S
O209        C218   1.279       .  A
O210        C217   1.277       .  A
O211       Cu214   1.999   1_455  S
O211        C216   1.275       .  A
O212        C215   1.278       .  A
Cu213      Cu614   2.369   1_445  S
Cu214      Cu613   2.369   1_655  S
C215        O605   1.279       .  A
C215        C321   1.490       .  S
C216        O606   1.279       .  A
C216        C248   1.479       .  S
C217        O607   1.277       .  A
C217        C237   1.475       .  S
C218        O608   1.276       .  A
C218        C332   1.485       .  S
O219       Cu227   1.997       .  S
O219        C229   1.276       .  A
O220        C230   1.274       .  A
O221       Cu227   2.022       .  S
O221        C231   1.280       .  A
O222        C232   1.281       .  A
O223        C232   1.274       .  A
O224       Cu228   1.989       .  S
O224        C231   1.273       .  A
O225        C230   1.282       .  A
O226       Cu228   2.021       .  S
O226        C229   1.280       .  A
Cu227      Cu228   2.371       .  S
C229        C388   1.487       .  S
C230        C293   1.482       .  S
C231        C304   1.467       .  S
C232        C377   1.486       .  S
C233        C634   1.416   1_545  A
C233        C238   1.403       .  A
C233        H240   1.079       .  S
C234        C633   1.416       .  A
C234        C235   1.426       .  A
C235        C236   1.396       .  A
C235        N242   1.434       .  S
C236        C237   1.397       .  A
C236        H241   1.084       .  S
C237        C638   1.417       .  A
C238        C637   1.416   1_545  A
C238        N239   1.440       .  S
N239        H243   1.046       .  S
N239        H244   1.042       .  S
N242        H245   1.045       .  S
N242        H246   1.046       .  S
C247        C248   1.396       .  A
C247        C252   1.399       .  A
C247        H254   1.084       .  S
C248        C649   1.409       .  A
C249        C648   1.409       .  A
C249        C250   1.406       .  A
C249        N256   1.439       .  S
C250        C651   1.418       .  A
C250        H255   1.076       .  S
C251        C650   1.418       .  A
C251        C252   1.432       .  A
C252        N253   1.435       .  S
N253        H657   1.046       .  S
N253        H258   1.046       .  S
N256        H259   1.045       .  S
N256        H660   1.046       .  S
H257        N653   1.046       .  S
H260        N656   1.046       .  S
C261        C262   1.414       .  A
C261        C266   1.405       .  A
C261        H268   1.078       .  S
C262        C263   1.416       .  A
C263        C264   1.389       .  A
C263        N270   1.424       .  S
C264        C265   1.409       .  A
C264        H269   1.075       .  S
C265        C266   1.422       .  A
C266        N267   1.434       .  S
N267        H271   1.046       .  S
N267        H272   1.046       .  S
N270        H273   1.046       .  S
N270        H274   1.046       .  S
C275        C276   1.404       .  A
C275        C280   1.401       .  A
C275        H282   1.080       .  S
C276        C277   1.426       .  A
C277        C278   1.396       .  A
C277        N284   1.434       .  S
C278        C279   1.407       .  A
C278        H283   1.071       .  S
C279        C604   1.569   1_545  S
C279        C280   1.428       .  A
C280        N281   1.434   1_545  S
N281        H285   1.046       .  S
N281        H286   1.045   1_565  S
N284        H287   1.046       .  S
N284        H288   1.046       .  S
C289        C290   1.419       .  A
C289        C294   1.397       .  A
C289        H296   1.084       .  S
C290        C291   1.448       .  A
C291        C292   1.404       .  A
C291        N298   1.441       .  S
C292        C293   1.394       .  A
C292        H297   1.085       .  S
C293        C294   1.410       .  A
C294        N295   1.433       .  S
N295        H299   1.046       .  S
N295        H300   1.044       .  S
N298        H301   1.031       .  S
N298        H302   1.046       .  S
C303        C304   1.397       .  A
C303        C308   1.403       .  A
C303        H310   1.085       .  S
C304        C305   1.407       .  A
C305        C306   1.399       .  A
C305        N312   1.439       .  S
C306        C307   1.418       .  A
C306        H311   1.074       .  S
C307        C308   1.429       .  A
C308        N309   1.432       .  S
N309        H313   1.046       .  S
N309        H314   1.046       .  S
N312        H315   1.043       .  S
N312        H316   1.046       .  S
C317        C718   1.419       .  A
C317        C322   1.398       .  A
C317        H324   1.084       .  S
C318        C717   1.419       .  A
C318        C319   1.430       .  A
C319        C320   1.405       .  A
C319        N326   1.432       .  S
C320        C321   1.403       .  A
C320        H325   1.084       .  S
C321        C722   1.413       .  A
C322        C721   1.413       .  A
C322        N323   1.433       .  S
N323        H327   1.046       .  S
N323        H328   1.045       .  S
N326        H329   1.046       .  S
N326        H330   1.046       .  S
C331        C732   1.399   1_565  A
C331        C336   1.398       .  A
C331        H338   1.084       .  S
C332        C731   1.399       .  A
C332        C333   1.415       .  A
C333        C334   1.401       .  A
C333        N340   1.433       .  S
C334        C335   1.418       .  A
C334        H339   1.079       .  S
C335        C736   1.425       .  A
C336        C735   1.425   1_565  A
C336        N337   1.431       .  S
N337        H341   1.046       .  S
N337        H342   1.046       .  S
N340        H343   1.046       .  S
N340        H344   1.045       .  S
C345        C346   1.418       .  A
C345        C350   1.408       .  A
C345        H352   1.078       .  S
C346        C602   1.580       .  S
C346        C347   1.418       .  A
C347        C348   1.407       .  A
C347        N354   1.433       .  S
C348        C349   1.418       .  A
C348        H353   1.079       .  S
C349        C350   1.419       .  A
C350        N351   1.433       .  S
N351        H355   1.045       .  S
N351        H356   1.046       .  S
N354        H357   1.046       .  S
N354        H358   1.045       .  S
C359        C360   1.417       .  A
C359        C364   1.407       .  A
C359        H366   1.078       .  S
C360        C361   1.418       .  A
C361        C362   1.407       .  A
C361        N368   1.433       .  S
C362        C363   1.417       .  A
C362        H367   1.078       .  S
C363        C364   1.418       .  A
C364        N365   1.433       .  S
N365        H369   1.046       .  S
N365        H370   1.045       .  S
N368        H371   1.045       .  S
N368        H372   1.046       .  S
C373        C374   1.416       .  A
C373        C378   1.399       .  A
C373        H380   1.079       .  S
C374        C375   1.427       .  A
C375        C376   1.401       .  A
C375        N382   1.431       .  S
C376        C377   1.399       .  A
C376        H381   1.084       .  S
C377        C378   1.416       .  A
C378        N379   1.433       .  S
N379        H383   1.045       .  S
N379        H384   1.046       .  S
N382        H385   1.046       .  S
N382        H386   1.046       .  S
C387        C388   1.403       .  A
C387        C392   1.405       .  A
C387        H394   1.084       .  S
C388        C389   1.411       .  A
C389        C390   1.396       .  A
C389        N396   1.433       .  S
C390        C391   1.419       .  A
C390        H395   1.084       .  S
C391        C392   1.428       .  A
C392        N393   1.432       .  S
N393        H397   1.046       .  S
N393        H398   1.046       .  S
N396        H399   1.045       .  S
N396        H400   1.045       .  S
C401        C549   1.581       .  S
C401        C560   1.572       .  S
C401        C574   1.571       .  S
C401        C591   1.570       .  S
C402        C518   1.572       .  S
C402        C535   1.570       .  S
C402        C563   1.573   1_545  S
C403        C462   1.567       .  S
C403        C476   1.551       .  S
C403        C490   1.579       .  S
C403        C507   1.574       .  S
C404        C434   1.564       .  S
C404        C451   1.574       .  S
C404        C465   1.565       .  S
O405       Cu613   2.018   1_655  S
O406       Cu413   2.015   1_554  S
O407       Cu613   2.005       .  S
O408       Cu413   2.005   1_654  S
O409       Cu414   2.004   1_554  S
O409        C418   1.279   1_565  A
O410       Cu614   1.999   1_455  S
O410        C417   1.277   1_565  A
O411       Cu414   1.999   1_454  S
O411        C416   1.275   1_565  A
O412       Cu614   2.004       .  S
O412        C415   1.278   1_565  A
Cu413       O605   2.018   1_455  S
Cu413       O607   2.005       .  S
Cu414       O610   1.999   1_655  S
Cu414       O612   2.004       .  S
C415        C521   1.490       .  S
C416        C448   1.479   1_545  S
C417        C437   1.475   1_545  S
C418        C532   1.485       .  S
O419       Cu427   1.997       .  S
O419        C429   1.276       .  A
O420       Cu627   1.994       .  S
O420        C430   1.274       .  A
O421       Cu427   2.022       .  S
O421        C431   1.280       .  A
O422       Cu627   2.019       .  S
O422        C432   1.281       .  A
O423       Cu628   1.993       .  S
O423        C432   1.274       .  A
O424       Cu428   1.989       .  S
O424        C431   1.273       .  A
O425       Cu628   2.026       .  S
O425        C430   1.282       .  A
O426       Cu428   2.021       .  S
O426        C429   1.280       .  A
Cu427       O620   1.994   1_554  S
Cu427       O622   2.019   1_554  S
Cu427      Cu428   2.371       .  S
Cu428       O623   1.993   1_554  S
Cu428       O625   2.026   1_554  S
C429        C588   1.487       .  S
C430        C493   1.482       .  S
C431        C504   1.467       .  S
C432        C577   1.486       .  S
C433        C438   1.403       .  A
C433        H440   1.079       .  S
C434        C435   1.426       .  A
C435        C436   1.396       .  A
C435        N442   1.434       .  S
C436        C437   1.397       .  A
C436        H441   1.084       .  S
C438        N439   1.440       .  S
N439        H443   1.046       .  S
N439        H444   1.042       .  S
N442        H445   1.045       .  S
N442        H446   1.046       .  S
C447        C448   1.396   1_545  A
C447        C452   1.399       .  A
C447        H454   1.084       .  S
C449        C450   1.406       .  A
C449        N456   1.439       .  S
C450        H455   1.076       .  S
C451        C452   1.432   1_565  A
C452        N453   1.435       .  S
N453        H458   1.046       .  S
N456        H459   1.045       .  S
C461        C462   1.414       .  A
C461        C466   1.405       .  A
C461        H468   1.078       .  S
C462        C463   1.416       .  A
C463        C464   1.389       .  A
C463        N470   1.424       .  S
C464        C465   1.409       .  A
C464        H469   1.075       .  S
C465        C466   1.422       .  A
C466        N467   1.434       .  S
N467        H471   1.046       .  S
N467        H472   1.046       .  S
N470        H473   1.046       .  S
N470        H474   1.046       .  S
C475        C476   1.404       .  A
C475        C480   1.401       .  A
C475        H482   1.080       .  S
C476        C477   1.426       .  A
C477        C478   1.395       .  A
C477        N484   1.434       .  S
C478        C479   1.407       .  A
C478        H483   1.071       .  S
C479        C480   1.428       .  A
C480        N481   1.434       .  S
N481        H485   1.046       .  S
N481        H486   1.045       .  S
N484        H487   1.046       .  S
N484        H488   1.046       .  S
C489        C490   1.419       .  A
C489        C494   1.397       .  A
C489        H496   1.084       .  S
C490        C491   1.448       .  A
C491        C492   1.404       .  A
C491        N498   1.441       .  S
C492        C493   1.394       .  A
C492        H497   1.085       .  S
C493        C494   1.410       .  A
C494        N495   1.433       .  S
N495        H499   1.046       .  S
N495        H500   1.044       .  S
N498        H501   1.031       .  S
N498        H502   1.046       .  S
C503        C504   1.397       .  A
C503        C508   1.403       .  A
C503        H510   1.085       .  S
C504        C505   1.407       .  A
C505        C506   1.399       .  A
C505        N512   1.439       .  S
C506        C507   1.418       .  A
C506        H511   1.074       .  S
C507        C508   1.429       .  A
C508        N509   1.432       .  S
N509        H513   1.046       .  S
N509        H514   1.045       .  S
N512        H515   1.043       .  S
N512        H516   1.046       .  S
C517        C522   1.398       .  A
C517        H524   1.084       .  S
C518        C519   1.430   1_545  A
C519        C520   1.405       .  A
C519        N526   1.432       .  S
C520        C521   1.403   1_565  A
C520        H525   1.084       .  S
C522        N523   1.433       .  S
N523        H527   1.046       .  S
N523        H528   1.045       .  S
N526        H529   1.046       .  S
N526        H530   1.046       .  S
C531        C536   1.398       .  A
C531        H538   1.084       .  S
C532        C533   1.415       .  A
C533        C534   1.401       .  A
C533        N540   1.433       .  S
C534        C535   1.418       .  A
C534        H539   1.079       .  S
C536        N537   1.431       .  S
N537        H541   1.046       .  S
N537        H542   1.046       .  S
N540        H543   1.046       .  S
N540        H544   1.045       .  S
C545        C546   1.418       .  A
C545        C550   1.408       .  A
C545        H552   1.078       .  S
C546        C547   1.419       .  A
C547        C548   1.407       .  A
C547        N554   1.433       .  S
C548        C549   1.418       .  A
C548        H553   1.079       .  S
C549        C550   1.419       .  A
C550        N551   1.433       .  S
N551        H555   1.045       .  S
N551        H556   1.046       .  S
N554        H557   1.046       .  S
N554        H558   1.045       .  S
C559        C560   1.417       .  A
C559        C564   1.407       .  A
C559        H566   1.078       .  S
C560        C561   1.418       .  A
C561        C562   1.407       .  A
C561        N568   1.433       .  S
C562        C563   1.417       .  A
C562        H567   1.078       .  S
C563        C564   1.418       .  A
C564        N565   1.433       .  S
N565        H569   1.046       .  S
N565        H570   1.045       .  S
N568        H571   1.045       .  S
N568        H572   1.046       .  S
C573        C574   1.416       .  A
C573        C578   1.399       .  A
C573        H580   1.079       .  S
C574        C575   1.427       .  A
C575        C576   1.401       .  A
C575        N582   1.431       .  S
C576        C577   1.399       .  A
C576        H581   1.084       .  S
C577        C578   1.416       .  A
C578        N579   1.433       .  S
N579        H583   1.045       .  S
N579        H584   1.046       .  S
N582        H585   1.046       .  S
N582        H586   1.046       .  S
C587        C588   1.403       .  A
C587        C592   1.405       .  A
C587        H594   1.084       .  S
C588        C589   1.411       .  A
C589        C590   1.396       .  A
C589        N596   1.433       .  S
C590        C591   1.419       .  A
C590        H595   1.084       .  S
C591        C592   1.428       .  A
C592        N593   1.432       .  S
N593        H597   1.046       .  S
N593        H598   1.046       .  S
N596        H599   1.045       .  S
N596        H600   1.045       .  S
C601        C749   1.581       .  S
C601        C760   1.572       .  S
C601        C774   1.571       .  S
C601        C791   1.570       .  S
C602        C718   1.572       .  S
C602        C735   1.570       .  S
C602        C763   1.573   1_545  S
C603        C662   1.567       .  S
C603        C676   1.551       .  S
C603        C690   1.579       .  S
C603        C707   1.574       .  S
C604        C634   1.564       .  S
C604        C651   1.574       .  S
C604        C665   1.565       .  S
O606       Cu613   2.015       .  S
O608       Cu613   2.005   1_655  S
O609       Cu614   2.004       .  S
O609        C618   1.279   1_565  A
O610        C617   1.277   1_565  A
O611       Cu614   1.999   1_455  S
O611        C616   1.275   1_565  A
O612        C615   1.278   1_565  A
C615        C721   1.490       .  S
C616        C648   1.479   1_545  S
C617        C637   1.475   1_545  S
C618        C732   1.485       .  S
O619       Cu627   1.997       .  S
O619        C629   1.276       .  A
O620        C630   1.274       .  A
O621       Cu627   2.022       .  S
O621        C631   1.280       .  A
O622        C632   1.281       .  A
O623        C632   1.274       .  A
O624       Cu628   1.989       .  S
O624        C631   1.273       .  A
O625        C630   1.282       .  A
O626       Cu628   2.021       .  S
O626        C629   1.280       .  A
Cu627      Cu628   2.371       .  S
C629        C788   1.487       .  S
C630        C693   1.482       .  S
C631        C704   1.467       .  S
C632        C777   1.486       .  S
C633        C638   1.403       .  A
C633        H640   1.079       .  S
C634        C635   1.426       .  A
C635        C636   1.396       .  A
C635        N642   1.434       .  S
C636        C637   1.397       .  A
C636        H641   1.084       .  S
C638        N639   1.440       .  S
N639        H643   1.046       .  S
N639        H644   1.042       .  S
N642        H645   1.045       .  S
N642        H646   1.046       .  S
C647        C648   1.396   1_545  A
C647        C652   1.399       .  A
C647        H654   1.084       .  S
C649        C650   1.406       .  A
C649        N656   1.439       .  S
C650        H655   1.076       .  S
C651        C652   1.432   1_565  A
C652        N653   1.435       .  S
N653        H658   1.046       .  S
N656        H659   1.045       .  S
C661        C662   1.414       .  A
C661        C666   1.405       .  A
C661        H668   1.078       .  S
C662        C663   1.416       .  A
C663        C664   1.389       .  A
C663        N670   1.424       .  S
C664        C665   1.409       .  A
C664        H669   1.075       .  S
C665        C666   1.422       .  A
C666        N667   1.434       .  S
N667        H671   1.046       .  S
N667        H672   1.046       .  S
N670        H673   1.046       .  S
N670        H674   1.046       .  S
C675        C676   1.404       .  A
C675        C680   1.401       .  A
C675        H682   1.080       .  S
C676        C677   1.426       .  A
C677        C678   1.395       .  A
C677        N684   1.434       .  S
C678        C679   1.407       .  A
C678        H683   1.071       .  S
C679        C680   1.428       .  A
C680        N681   1.434       .  S
N681        H685   1.046       .  S
N681        H686   1.045       .  S
N684        H687   1.046       .  S
N684        H688   1.046       .  S
C689        C690   1.419       .  A
C689        C694   1.397       .  A
C689        H696   1.084       .  S
C690        C691   1.448       .  A
C691        C692   1.404       .  A
C691        N698   1.441       .  S
C692        C693   1.394       .  A
C692        H697   1.085       .  S
C693        C694   1.410       .  A
C694        N695   1.433       .  S
N695        H699   1.046       .  S
N695        H700   1.044       .  S
N698        H701   1.031       .  S
N698        H702   1.046       .  S
C703        C704   1.397       .  A
C703        C708   1.403       .  A
C703        H710   1.085       .  S
C704        C705   1.407       .  A
C705        C706   1.399       .  A
C705        N712   1.439       .  S
C706        C707   1.418       .  A
C706        H711   1.074       .  S
C707        C708   1.429       .  A
C708        N709   1.432       .  S
N709        H713   1.046       .  S
N709        H714   1.046       .  S
N712        H715   1.043       .  S
N712        H716   1.046       .  S
C717        C722   1.398       .  A
C717        H724   1.084       .  S
C718        C719   1.430   1_545  A
C719        C720   1.405       .  A
C719        N726   1.432       .  S
C720        C721   1.403   1_565  A
C720        H725   1.084       .  S
C722        N723   1.433       .  S
N723        H727   1.046       .  S
N723        H728   1.045       .  S
N726        H729   1.046       .  S
N726        H730   1.046       .  S
C731        C736   1.398       .  A
C731        H738   1.084       .  S
C732        C733   1.415       .  A
C733        C734   1.401       .  A
C733        N740   1.433       .  S
C734        C735   1.418       .  A
C734        H739   1.079       .  S
C736        N737   1.431       .  S
N737        H741   1.046       .  S
N737        H742   1.046       .  S
N740        H743   1.046       .  S
N740        H744   1.045       .  S
C745        C746   1.418       .  A
C745        C750   1.408       .  A
C745        H752   1.078       .  S
C746        C747   1.419       .  A
C747        C748   1.407       .  A
C747        N754   1.433       .  S
C748        C749   1.418       .  A
C748        H753   1.079       .  S
C749        C750   1.419       .  A
C750        N751   1.433       .  S
N751        H755   1.045       .  S
N751        H756   1.046       .  S
N754        H757   1.046       .  S
N754        H758   1.045       .  S
C759        C760   1.417       .  A
C759        C764   1.407       .  A
C759        H766   1.078       .  S
C760        C761   1.418       .  A
C761        C762   1.407       .  A
C761        N768   1.433       .  S
C762        C763   1.417       .  A
C762        H767   1.078       .  S
C763        C764   1.418       .  A
C764        N765   1.433       .  S
N765        H769   1.046       .  S
N765        H770   1.045       .  S
N768        H771   1.045       .  S
N768        H772   1.046       .  S
C773        C774   1.416       .  A
C773        C778   1.399       .  A
C773        H780   1.079       .  S
C774        C775   1.427       .  A
C775        C776   1.401       .  A
C775        N782   1.431       .  S
C776        C777   1.399       .  A
C776        H781   1.084       .  S
C777        C778   1.416       .  A
C778        N779   1.433       .  S
N779        H783   1.045       .  S
N779        H784   1.046       .  S
N782        H785   1.046       .  S
N782        H786   1.046       .  S
C787        C788   1.403       .  A
C787        C792   1.405       .  A
C787        H794   1.084       .  S
C788        C789   1.411       .  A
C789        C790   1.396       .  A
C789        N796   1.433       .  S
C790        C791   1.419       .  A
C790        H795   1.084       .  S
C791        C792   1.428       .  A
C792        N793   1.432       .  S
N793        H797   1.046       .  S
N793        H798   1.046       .  S
N796        H799   1.045       .  S
N796        H800   1.045       .  S
