geometry optimzed in LAMMPS
_audit_creation_date              2020-11-30 
_audit_creation_method            'lammps2cif' 
_symmetry_space_group_name_H-M    'P1' 
_symmetry_Int_Tables_number       1 
_symmetry_cell_setting            triclinic 
loop_ 
_symmetry_equiv_pos_as_xyz 
  x,y,z 
_cell_length_a                    62.16967922 
_cell_length_b                    62.50050584817939 
_cell_length_c                    62.40751484502607 
_cell_angle_alpha                 89.73127707165811 
_cell_angle_beta                  90.10067128540716 
_cell_angle_gamma                 90.08793442837116 
loop_ 
_atom_site_label 
_atom_site_type_symbol 
_atom_site_fract_x 
_atom_site_fract_y 
_atom_site_fract_z 
_atom_site_charge 
N1          N  0.63303913  0.14761727  0.78835485    -0.25800
N2          N  0.62862675  0.12781644  0.79452326    -0.33700
C3          C  0.62493695  0.11578947  0.77703347     0.02500
C4          C  0.62706549  0.12876164  0.75916934     0.08500
C5          C  0.63223850  0.14875707  0.76685946    -0.04600
H6          H  0.62187683  0.09874382  0.77729260     0.09200
H7          H  0.63602667  0.16289574  0.75752424     0.10400
Cu8        Cu  0.63028231  0.11781771  0.82628182     0.44200
Cu9        Cu  0.64179003  0.17190763  0.80905426     0.42000
Cu10       Cu  0.65013359  0.15774386  0.86422317     0.43900
N11         N  0.63751678  0.11137586  0.85817097    -0.33200
N12         N  0.64546479  0.12567506  0.87161325    -0.27500
C13         C  0.65064968  0.11583774  0.89011440    -0.03600
C14         C  0.64551234  0.09441722  0.88833266     0.08600
C15         C  0.63717808  0.09211558  0.86789716     0.02400
H16         H  0.65811824  0.12362108  0.90367098     0.10100
H17         H  0.63236739  0.07737956  0.86021841     0.09200
N18         N  0.65312733  0.18877975  0.85269534    -0.34700
N19         N  0.65012772  0.19389839  0.83232739    -0.26800
C20         C  0.65279787  0.21511653  0.82983685    -0.02100
C21         C  0.65765312  0.22366670  0.84958937     0.06500
C22         C  0.65776433  0.20664305  0.86376530     0.04600
H23         H  0.65108007  0.22366402  0.81481542     0.09700
H24         H  0.66076794  0.20718723  0.88083606     0.08600
N25         N  0.87551401  0.15803518  0.54354059    -0.25800
N26         N  0.87968204  0.13775618  0.53922867    -0.33700
C27         C  0.86157103  0.12617073  0.54140345     0.02500
C28         C  0.84527135  0.13980418  0.54737465     0.08500
C29         C  0.85454425  0.15987335  0.54862821    -0.04600
H30         H  0.86037838  0.10912085  0.53870380     0.09200
H31         H  0.84664502  0.17470976  0.55272533     0.10400
Cu32       Cu  0.90965469  0.12659256  0.53040788     0.44200
Cu33       Cu  0.89862205  0.18215995  0.54158704     0.42000
Cu34       Cu  0.95073151  0.16590441  0.52017306     0.43900
N35         N  0.94091280  0.11886205  0.52232161    -0.33200
N36         N  0.95582799  0.13321305  0.51761244    -0.27500
C37         C  0.97461390  0.12309247  0.51427062    -0.03600
C38         C  0.97131549  0.10137825  0.51731692     0.08600
C39         C  0.94983730  0.09929274  0.52248512     0.02400
H40         H  0.98982102  0.13106975  0.51150235     0.10100
H41         H  0.94149887  0.08473335  0.52690818     0.09200
N42         N  0.94335926  0.19695793  0.52921850    -0.34700
N43         N  0.92462381  0.20284480  0.53732744    -0.26800
C44         C  0.92571661  0.22366710  0.54270295    -0.02100
C45         C  0.94604501  0.23110088  0.53771627     0.06500
C46         C  0.95683291  0.21383781  0.52924614     0.04600
H47         H  0.91281560  0.23258103  0.55007516     0.09700
H48         H  0.97339933  0.21339022  0.52399526     0.08600
N49         N  0.95332481  0.41691005  0.80620038    -0.25800
N50         N  0.97348024  0.41895388  0.81268643    -0.33700
C51         C  0.98670878  0.41676104  0.79582502     0.02500
C52         C  0.97421697  0.41310551  0.77796520     0.08500
C53         C  0.95317493  0.41330229  0.78496856    -0.04600
H54         H  0.00403202  0.41832345  0.79647398     0.09200
H55         H  0.93882165  0.41160841  0.77529452     0.10400
Cu56       Cu  0.98204921  0.42609199  0.84375877     0.44200
Cu57       Cu  0.92708230  0.42086935  0.82633258     0.42000
Cu58       Cu  0.93975567  0.44093371  0.87992443     0.43900
N59         N  0.98739222  0.43520104  0.87501609    -0.33200
N60         N  0.97209172  0.44160726  0.88817165    -0.27500
C61         C  0.98102288  0.44662230  0.90717203    -0.03600
C62         C  0.00288668  0.44279285  0.90590205     0.08600
C63         C  0.00636364  0.43561750  0.88528711     0.02400
H64         H  0.97215793  0.45184530  0.92110232     0.10100
H65         H  0.02153479  0.43099132  0.87823017     0.09200
N66         N  0.90880599  0.43535855  0.86872936    -0.34700
N67         N  0.90416585  0.42783221  0.84946555    -0.26800
C68         C  0.88267473  0.42583297  0.84763737    -0.02100
C69         C  0.87351641  0.43243899  0.86661696     0.06500
C70         C  0.89042277  0.43831225  0.87964714     0.04600
H71         H  0.87438932  0.42003534  0.83354630     0.09700
H72         H  0.88948640  0.44423108  0.89588049     0.08600
N73         N  0.73951438  0.40394393  0.88822465    -0.25800
N74         N  0.73378122  0.42404516  0.89152476    -0.33700
C75         C  0.75164192  0.43631684  0.89195190     0.02500
C76         C  0.76922031  0.42316153  0.88885019     0.08500
C77         C  0.76100401  0.40285192  0.88653491    -0.04600
H78         H  0.75171475  0.45356059  0.89339452     0.09200
H79         H  0.76987841  0.38846043  0.88282576     0.10400
Cu80       Cu  0.70177997  0.43396172  0.89247003     0.44200
Cu81       Cu  0.71840090  0.37893116  0.88318154     0.42000
Cu82       Cu  0.66415548  0.39371959  0.87251009     0.43900
N83         N  0.66914740  0.43960299  0.88714402    -0.33200
N84         N  0.65603129  0.42526598  0.87861469    -0.27500
C85         C  0.63681496  0.43438396  0.87492667    -0.03600
C86         C  0.63764551  0.45530666  0.88181209     0.08600
C87         C  0.65837567  0.45814619  0.88950815     0.02400
H88         H  0.62324463  0.42637608  0.86758676     0.10100
H89         H  0.66542628  0.47285440  0.89532104     0.09200
N90         N  0.67485139  0.36236768  0.87101951    -0.34700
N91         N  0.69493351  0.35690701  0.87530576    -0.26800
C92         C  0.69695583  0.33557024  0.87357883    -0.02100
C93         C  0.67715942  0.32730800  0.86799149     0.06500
C94         C  0.66346553  0.34462059  0.86647368     0.04600
H95         H  0.71170886  0.32678361  0.87623290     0.09700
H96         H  0.64651966  0.34436578  0.86251674     0.08600
N97         N  0.99144011  0.39350338  0.64099324    -0.25800
N98         N  0.99527395  0.41423332  0.63910613    -0.33700
C99         C  0.99696647  0.42279741  0.65877945     0.02500
C100        C  0.99409622  0.40657024  0.67357069     0.08500
C101        C  0.99055134  0.38826347  0.66187154    -0.04600
H102        H  0.99974442  0.43956976  0.66201490     0.09200
H103        H  0.98727965  0.37237619  0.66801977     0.10400
Cu104      Cu  0.99768147  0.42951437  0.60975557     0.44200
Cu105      Cu  0.98754371  0.37331962  0.61517648     0.42000
Cu106      Cu  0.99527788  0.39517959  0.56219802     0.43900
N107        N  0.00067105  0.44047200  0.57858419    -0.33200
N108        N  0.00072865  0.42811402  0.56141359    -0.27500
C109        C  0.00293120  0.44056324  0.54388573    -0.03600
C110        C  0.00406412  0.46167797  0.55041251     0.08600
C111        C  0.00238369  0.46102935  0.57242306     0.02400
H112        H  0.00236393  0.43479591  0.52758009     0.10100
H113        H  0.00188349  0.47455763  0.58317977     0.09200
N114        N  0.98822140  0.36304691  0.56806816    -0.34700
N115        N  0.98540441  0.35527463  0.58761479    -0.26800
C116        C  0.98070680  0.33432361  0.58641205    -0.02100
C117        C  0.98055018  0.32861969  0.56511975     0.06500
C118        C  0.98530780  0.34713049  0.55383232     0.04600
H119        H  0.97730692  0.32411249  0.60004365     0.09700
H120        H  0.98623685  0.34898973  0.53661475     0.08600
N121        N  0.71328932  0.10378265  0.58372612    -0.25800
N122        N  0.70950670  0.09990753  0.56324643    -0.33700
C123        C  0.72769071  0.10335528  0.55204214     0.02500
C124        C  0.74353501  0.10963496  0.56623515     0.08500
C125        C  0.73393998  0.10975962  0.58613864    -0.04600
H126        H  0.72906374  0.10201056  0.53482146     0.09200
H127        H  0.74120799  0.11445952  0.60116633     0.10400
Cu128      Cu  0.67920747  0.09218074  0.55146828     0.44200
Cu129      Cu  0.68975880  0.10275195  0.60713385     0.42000
Cu130      Cu  0.63464808  0.09883943  0.58891235     0.43900
N131        N  0.64698052  0.08957956  0.54296354    -0.33200
N132        N  0.63084162  0.09322152  0.55625519    -0.27500
C133        C  0.61221598  0.09201608  0.54529316    -0.03600
C134        C  0.61686743  0.08711321  0.52419708     0.08600
C135        C  0.63900774  0.08550366  0.52333017     0.02400
H136        H  0.59644512  0.09415059  0.55225795     0.10100
H137        H  0.64866291  0.08215788  0.50933437     0.09200
N138        N  0.64327250  0.10277276  0.62091202    -0.34700
N139        N  0.66349891  0.10392911  0.62743826    -0.26800
C140        C  0.66391459  0.10666687  0.64878649    -0.02100
C141        C  0.64298819  0.10722466  0.65600892     0.06500
C142        C  0.63023987  0.10473668  0.63802697     0.04600
H143        H  0.67839219  0.10840647  0.65826908     0.09700
H144        H  0.61285157  0.10456475  0.63737027     0.08600
N145        N  0.24292391  0.43613932  0.83469370    -0.25800
N146        N  0.23861081  0.43781699  0.85539131    -0.33700
C147        C  0.25698894  0.43557204  0.86662561     0.02500
C148        C  0.27357299  0.43240212  0.85232256     0.08500
C149        C  0.26418278  0.43283732  0.83225195    -0.04600
H150        H  0.25809797  0.43587441  0.88392436     0.09200
H151        H  0.27212419  0.43058341  0.81701812     0.10400
Cu152      Cu  0.20785329  0.44166145  0.86782306     0.44200
Cu153      Cu  0.21968218  0.43721980  0.81060843     0.42000
Cu154      Cu  0.16521575  0.43330042  0.82963008     0.43900
N155        N  0.17553631  0.44042108  0.87619026    -0.33200
N156        N  0.16021889  0.43596405  0.86217759    -0.27500
C157        C  0.14144960  0.43364472  0.87252443    -0.03600
C158        C  0.14498773  0.43725033  0.89400681     0.08600
C159        C  0.16676544  0.44151553  0.89588087     0.02400
H160        H  0.12637276  0.42936140  0.86497077     0.10100
H161        H  0.17574560  0.44393792  0.91053581     0.09200
N162        N  0.17305744  0.43510847  0.79755878    -0.34700
N163        N  0.19298638  0.43692218  0.79039146    -0.26800
C164        C  0.19244930  0.43871454  0.76887282    -0.02100
C165        C  0.17118115  0.43800929  0.76242134     0.06500
C166        C  0.15931899  0.43570051  0.78091402     0.04600
H167        H  0.20644532  0.44058402  0.75875921     0.09700
H168        H  0.14198940  0.43483548  0.78225201     0.08600
N169        N  0.20741320  0.17942698  0.55296197    -0.25800
N170        N  0.20370854  0.15880865  0.54986677    -0.33700
C171        C  0.22246484  0.14813225  0.55102075     0.02500
C172        C  0.23864518  0.16273597  0.55498957     0.08500
C173        C  0.22863770  0.18240024  0.55615718    -0.04600
H174        H  0.22410931  0.13097440  0.54950444     0.09200
H175        H  0.23612701  0.19767807  0.55943806     0.10400
Cu176      Cu  0.17321159  0.14580730  0.54560225     0.44200
Cu177      Cu  0.18335000  0.20249246  0.55357762     0.42000
Cu178      Cu  0.12908579  0.18189458  0.55580874     0.43900
N179        N  0.14110516  0.13649828  0.54560209    -0.33200
N180        N  0.12516819  0.14948859  0.55071386    -0.27500
C181        C  0.10653762  0.13856009  0.55032728    -0.03600
C182        C  0.11088847  0.11781381  0.54430119     0.08600
C183        C  0.13295327  0.11700630  0.54139696     0.02400
H184        H  0.09089128  0.14541434  0.55351620     0.10100
H185        H  0.14240270  0.10324312  0.53685039     0.09200
N186        N  0.13634992  0.21416259  0.55526298    -0.34700
N187        N  0.15616468  0.22182261  0.55414866    -0.26800
C188        C  0.15526763  0.24333273  0.55326297    -0.02100
C189        C  0.13389267  0.24929321  0.55376804     0.06500
C190        C  0.12232157  0.23051448  0.55508389     0.04600
H191        H  0.16911883  0.25379131  0.55232257     0.09700
H192        H  0.10501591  0.22880739  0.55576546     0.08600
N193        N  0.47644256  0.13526453  0.78419727    -0.25800
N194        N  0.47331479  0.11580640  0.79202317    -0.33700
C195        C  0.46792069  0.10259794  0.77587105     0.02500
C196        C  0.46768655  0.11439069  0.75708768     0.08500
C197        C  0.47310988  0.13499174  0.76288836    -0.04600
H198        H  0.46439420  0.08573160  0.77770113     0.09200
H199        H  0.47441293  0.14880077  0.75244813     0.10400
Cu200      Cu  0.47693340  0.10841123  0.82433767     0.44200
Cu201      Cu  0.48473978  0.16134172  0.80298551     0.42000
Cu202      Cu  0.49617083  0.15134417  0.85913363     0.43900
N203        N  0.48422033  0.10443303  0.85663105    -0.33200
N204        N  0.49232834  0.11960390  0.86899530    -0.27500
C205        C  0.49614293  0.11131879  0.88861300    -0.03600
C206        C  0.48969238  0.09012349  0.88868960     0.08600
C207        C  0.48224292  0.08629621  0.86815964     0.02400
H208        H  0.50253441  0.12024046  0.90201491     0.10100
H209        H  0.47609982  0.07134971  0.86195210     0.09200
N210        N  0.49541269  0.18188508  0.84545042    -0.34700
N211        N  0.49129881  0.18537619  0.82491511    -0.26800
C212        C  0.49053195  0.20660304  0.82128319    -0.02100
C213        C  0.49433013  0.21695304  0.84040207     0.06500
C214        C  0.49731940  0.20088725  0.85543058     0.04600
H215        H  0.48666087  0.21391840  0.80601196     0.09700
H216        H  0.49988592  0.20283076  0.87246223     0.08600
N217        N  0.40915232  0.39571181  0.86720372    -0.25800
N218        N  0.41357220  0.41548339  0.87334157    -0.33700
C219        C  0.39499630  0.42647925  0.87490237     0.02500
C220        C  0.37826339  0.41289498  0.86954936     0.08500
C221        C  0.38775754  0.39358882  0.86474050    -0.04600
H222        H  0.39382747  0.44320428  0.87913159     0.09200
H223        H  0.37977616  0.37915675  0.85942343     0.10400
Cu224      Cu  0.44488174  0.42676044  0.87796881     0.44200
Cu225      Cu  0.43218312  0.37242437  0.86169903     0.42000
Cu226      Cu  0.48745412  0.38824784  0.86558005     0.43900
N227        N  0.47763975  0.43426371  0.87781260    -0.33200
N228        N  0.49281551  0.42049545  0.87233588    -0.27500
C229        C  0.51177436  0.43085605  0.87130356    -0.03600
C230        C  0.50856026  0.45202573  0.87673065     0.08600
C231        C  0.48671491  0.45365066  0.88081404     0.02400
H232        H  0.52678298  0.42358958  0.86647079     0.10100
H233        H  0.47787929  0.46808740  0.88441157     0.09200
N234        N  0.47790399  0.35677902  0.85980289    -0.34700
N235        N  0.45745819  0.35112650  0.85822044    -0.26800
C236        C  0.45621224  0.32990623  0.85487399    -0.02100
C237        C  0.47684865  0.32182629  0.85436083     0.06500
C238        C  0.49025995  0.33921654  0.85753728     0.04600
H239        H  0.44136434  0.32100796  0.85323806     0.09700
H240        H  0.50764052  0.33910221  0.85837086     0.08600
N241        N  0.36952816  0.11925236  0.58736103    -0.25800
N242        N  0.37461764  0.12346887  0.56720900    -0.33700
C243        C  0.35754231  0.13237057  0.55733031     0.02500
C244        C  0.34103753  0.13382292  0.57202497     0.08500
C245        C  0.34909064  0.12537616  0.59087365    -0.04600
H246        H  0.35713132  0.13719098  0.54066156     0.09200
H247        H  0.34072651  0.12368974  0.60597758     0.10400
Cu248      Cu  0.40441928  0.11629764  0.55409479     0.44200
Cu249      Cu  0.39089192  0.10576942  0.60912165     0.42000
Cu250      Cu  0.44368195  0.09076396  0.58908910     0.43900
N251        N  0.43438356  0.10578620  0.54393028    -0.33200
N252        N  0.44833487  0.09557115  0.55630566    -0.27500
C253        C  0.46579408  0.09060924  0.54455592    -0.03600
C254        C  0.46270163  0.09828839  0.52389846     0.08600
C255        C  0.44273005  0.10792577  0.52416610     0.02400
H256        H  0.48002338  0.08282253  0.55081715     0.10100
H257        H  0.43485206  0.11601512  0.51095414     0.09200
N258        N  0.43553794  0.09102022  0.62151784    -0.34700
N259        N  0.41619281  0.09619080  0.62862902    -0.26800
C260        C  0.41659419  0.09680060  0.65016732    -0.02100
C261        C  0.43711847  0.09181907  0.65693422     0.06500
C262        C  0.44878067  0.08828485  0.63844101     0.04600
H263        H  0.40326319  0.10178595  0.66007514     0.09700
H264        H  0.46584368  0.08513146  0.63730113     0.08600
N265        N  0.11509190  0.42075011  0.63590505    -0.25800
N266        N  0.11470812  0.44153007  0.63184665    -0.33700
C267        C  0.12249594  0.45200176  0.64904774     0.02500
C268        C  0.12795867  0.43694487  0.66443338     0.08500
C269        C  0.12309893  0.41737477  0.65562491    -0.04600
H270        H  0.12427541  0.46918441  0.65013891     0.09200
H271        H  0.12549528  0.40178390  0.66284817     0.10400
Cu272      Cu  0.10397634  0.45393493  0.60265222     0.44200
Cu273      Cu  0.10585043  0.39770055  0.61426509     0.42000
Cu274      Cu  0.08410797  0.41440359  0.56366319     0.43900
N275        N  0.09188335  0.46146890  0.57232920    -0.33200
N276        N  0.08365511  0.44735424  0.55882523    -0.27500
C277        C  0.07766083  0.45754072  0.54072746    -0.03600
C278        C  0.08278265  0.47895305  0.54267875     0.08600
C279        C  0.09171585  0.48090549  0.56294240     0.02400
H280        H  0.07128082  0.44969577  0.52665212     0.10100
H281        H  0.09804930  0.49529419  0.57018328     0.09200
N282        N  0.09126083  0.38268319  0.57091228    -0.34700
N283        N  0.09913028  0.37679886  0.58972547    -0.26800
C284        C  0.10402254  0.35590342  0.58925738    -0.02100
C285        C  0.09902667  0.34825610  0.56921224     0.06500
C286        C  0.09100937  0.36555445  0.55785637     0.04600
H287        H  0.11167165  0.34721143  0.60222016     0.09700
H288        H  0.08632502  0.36592885  0.54115491     0.08600
N289        N  0.44982120  0.85280073  0.82919349    -0.25800
N290        N  0.45212067  0.85736931  0.84975393    -0.33700
C291        C  0.44975419  0.83930655  0.86136422     0.02500
C292        C  0.44573984  0.82273455  0.84737101     0.08500
C293        C  0.44588968  0.83174813  0.82716613    -0.04600
H294        H  0.45139512  0.83826783  0.87860030     0.09200
H295        H  0.44387988  0.82355019  0.81206138     0.10400
Cu296      Cu  0.45992256  0.88762163  0.86087707     0.44200
Cu297      Cu  0.45370218  0.87488437  0.80457579     0.42000
Cu298      Cu  0.47720528  0.92526175  0.81988352     0.43900
N299        N  0.47068049  0.91836264  0.86727779    -0.33200
N300        N  0.47821443  0.93156037  0.85244861    -0.27500
C301        C  0.48428493  0.94995303  0.86180152    -0.03600
C302        C  0.47996206  0.94840180  0.88344169     0.08600
C303        C  0.47136320  0.92817014  0.88640563     0.02400
H304        H  0.49046370  0.96378345  0.85331810     0.10100
H305        H  0.46598248  0.92109648  0.90132127     0.09200
N306        N  0.46926527  0.91768077  0.78854739    -0.34700
N307        N  0.46026254  0.89934487  0.78295461    -0.26800
C308        C  0.45571308  0.89994379  0.76186630    -0.02100
C309        C  0.46217620  0.91958253  0.75394687     0.06500
C310        C  0.47066306  0.93046190  0.77119389     0.04600
H311        H  0.44783174  0.88724169  0.75311222     0.09700
H312        H  0.47679708  0.94667034  0.77129723     0.08600
N313        N  0.22357919  0.90895867  0.52403064    -0.25800
N314        N  0.22038713  0.92873751  0.51704108    -0.33700
C315        C  0.23932442  0.93918135  0.51659947     0.02500
C316        C  0.25507494  0.92527163  0.52355543     0.08500
C317        C  0.24465418  0.90630736  0.52817043    -0.04600
H318        H  0.24131643  0.95584024  0.51222914     0.09200
H319        H  0.25172337  0.89185722  0.53467311     0.10400
Cu320      Cu  0.19038762  0.94154803  0.51034864     0.44200
Cu321      Cu  0.19920600  0.88669340  0.52911733     0.42000
Cu322      Cu  0.14549153  0.90671405  0.52200939     0.43900
N323        N  0.15865519  0.95155943  0.50967863    -0.33200
N324        N  0.14237436  0.93898103  0.51497756    -0.27500
C325        C  0.12422717  0.95061712  0.51537397    -0.03600
C326        C  0.12933862  0.97145344  0.50985813     0.08600
C327        C  0.15122333  0.97147489  0.50610613     0.02400
H328        H  0.10849234  0.94435007  0.51935426     0.10100
H329        H  0.16113996  0.98510742  0.50193546     0.09200
N330        N  0.15217586  0.87527537  0.53025256    -0.34700
N331        N  0.17188600  0.86788011  0.53319134    -0.26800
C332        C  0.17071437  0.84720666  0.53930050    -0.02100
C333        C  0.14925459  0.84145816  0.54012181     0.06500
C334        C  0.13793928  0.85954990  0.53431835     0.04600
H335        H  0.18442305  0.83724332  0.54311419     0.09700
H336        H  0.12064874  0.86130591  0.53348846     0.08600
N337        N  0.22129038  0.59326095  0.83161964    -0.25800
N338        N  0.21984461  0.58949877  0.85246351    -0.33700
C339        C  0.23954338  0.58471363  0.86011038     0.02500
C340        C  0.25389103  0.58540799  0.84324732     0.08500
C341        C  0.24187401  0.59093896  0.82548655    -0.04600
H342        H  0.24330722  0.58215739  0.87686111     0.09200
H343        H  0.24782091  0.59428043  0.80953140     0.10400
Cu344      Cu  0.19179552  0.59377077  0.87009030     0.44200
Cu345      Cu  0.19616851  0.60416777  0.81256745     0.42000
Cu346      Cu  0.14919243  0.62087894  0.84036374     0.43900
N347        N  0.16264108  0.60301393  0.88350279    -0.33200
N348        N  0.14782667  0.61383995  0.87275962    -0.27500
C349        C  0.13141282  0.61836332  0.88591202    -0.03600
C350        C  0.13582965  0.60969374  0.90577479     0.08600
C351        C  0.15576571  0.60002529  0.90377410     0.02400
H352        H  0.11700349  0.62687593  0.88117073     0.10100
H353        H  0.16471770  0.59172528  0.91614071     0.09200
N354        N  0.15241558  0.62384178  0.80749026    -0.34700
N355        N  0.16975132  0.61744102  0.79712174    -0.26800
C356        C  0.16709608  0.62132738  0.77605194    -0.02100
C357        C  0.14713107  0.63056615  0.77315971     0.06500
C358        C  0.13820308  0.63194229  0.79333821     0.04600
H359        H  0.17885661  0.61779238  0.76381933     0.09700
H360        H  0.12260839  0.63836587  0.79746317     0.08600
N361        N  0.42252631  0.68443579  0.85410819    -0.25800
N362        N  0.44335928  0.68226593  0.85797653    -0.33700
C363        C  0.45214934  0.70182031  0.86032335     0.02500
C364        C  0.43605828  0.71682843  0.85785947     0.08500
C365        C  0.41752684  0.70536940  0.85389003    -0.04600
H366        H  0.46903414  0.70485649  0.86324041     0.09200
H367        H  0.40163296  0.71172997  0.85082809     0.10400
Cu368      Cu  0.45929357  0.65296166  0.85885105     0.44200
Cu369      Cu  0.40158777  0.65912121  0.84914482     0.42000
Cu370      Cu  0.42620694  0.60739979  0.84500951     0.43900
N371        N  0.47132257  0.62206026  0.85538238    -0.33200
N372        N  0.45927206  0.60581402  0.84903578    -0.27500
C373        C  0.47159825  0.58825652  0.84735636    -0.03600
C374        C  0.49231722  0.59350096  0.85332748     0.08600
C375        C  0.49162609  0.61508332  0.85836835     0.02400
H376        H  0.46570301  0.57258485  0.84293545     0.10100
H377        H  0.50487221  0.62497927  0.86369739     0.09200
N378        N  0.39317726  0.61191504  0.84492143    -0.34700
N379        N  0.38416439  0.63100195  0.84637156    -0.26800
C380        C  0.36266328  0.62869576  0.84659092    -0.02100
C381        C  0.35801747  0.60715777  0.84526089     0.06500
C382        C  0.37763378  0.59689998  0.84423325     0.04600
H383        H  0.35129743  0.64171638  0.84790381     0.09700
H384        H  0.38044642  0.57985037  0.84330648     0.08600
N385        N  0.10085471  0.72190466  0.59720823    -0.25800
N386        N  0.09468190  0.71585945  0.57785208    -0.33700
C387        C  0.09814721  0.73205119  0.56395059     0.02500
C388        C  0.10688099  0.74898346  0.57516504     0.08500
C389        C  0.10839083  0.74207052  0.59613953    -0.04600
H390        H  0.09540087  0.73119124  0.54685194     0.09200
H391        H  0.11529544  0.75069852  0.60948114     0.10400
Cu392      Cu  0.08451762  0.68498998  0.57079906     0.44200
Cu393      Cu  0.10098936  0.70191006  0.62390114     0.42000
Cu394      Cu  0.08619635  0.64699787  0.61507904     0.43900
N395        N  0.08037781  0.65219996  0.56730536    -0.33200
N396        N  0.08154055  0.63840821  0.58340681    -0.27500
C397        C  0.08212900  0.61843933  0.57553068    -0.03600
C398        C  0.08107084  0.61966979  0.55347214     0.08600
C399        C  0.07988263  0.64130419  0.54876405     0.02400
H400        H  0.08455673  0.60416197  0.58510156     0.10100
H401        H  0.08058370  0.64863899  0.53304440     0.09200
N402        N  0.09568515  0.65860908  0.64464022    -0.34700
N403        N  0.10143418  0.67872129  0.64786216    -0.26800
C404        C  0.10852976  0.68076253  0.66814646    -0.02100
C405        C  0.10707733  0.66100436  0.67804153     0.06500
C406        C  0.09891640  0.64731458  0.66276212     0.04600
H407        H  0.11494590  0.69535156  0.67490936     0.09700
H408        H  0.09632062  0.63026317  0.66439455     0.08600
N409        N  0.38558120  0.94799129  0.57142996    -0.25800
N410        N  0.39294337  0.94591654  0.55167080    -0.33700
C411        C  0.37621040  0.94313006  0.53824634     0.02500
C412        C  0.35757544  0.94347399  0.55021896     0.08500
C413        C  0.36400107  0.94653545  0.57113625    -0.04600
H414        H  0.37755346  0.94095079  0.52111248     0.09200
H415        H  0.35380782  0.94749322  0.58513339     0.10400
Cu416      Cu  0.42536630  0.94729020  0.54391516     0.44200
Cu417      Cu  0.40508622  0.95232778  0.59799955     0.42000
Cu418      Cu  0.46183762  0.95907962  0.58789853     0.43900
N419        N  0.45809891  0.95261857  0.54009667    -0.33200
N420        N  0.47118005  0.95786430  0.55597006    -0.27500
C421        C  0.49076169  0.96223759  0.54788880    -0.03600
C422        C  0.48996754  0.95943999  0.52589790     0.08600
C423        C  0.46909425  0.95318603  0.52155035     0.02400
H424        H  0.50447064  0.96724103  0.55732262     0.10100
H425        H  0.46214636  0.95020824  0.50593980     0.09200
N426        N  0.44872230  0.95713787  0.61844814    -0.34700
N427        N  0.42790860  0.95469135  0.62209126    -0.26800
C428        C  0.42474178  0.95195898  0.64324636    -0.02100
C429        C  0.44449377  0.95275806  0.65331877     0.06500
C430        C  0.45936837  0.95601412  0.63722189     0.04600
H431        H  0.40935519  0.94848018  0.65055958     0.09700
H432        H  0.47669095  0.95637358  0.63886389     0.08600
N433        N  0.96789241  0.84726486  0.50398585    -0.25800
N434        N  0.98696901  0.85628299  0.50124997    -0.33700
C435        C  0.00237578  0.84219308  0.50674333     0.02500
C436        C  0.99247770  0.82348847  0.51314808     0.08500
C437        C  0.97066876  0.82715213  0.51126637    -0.04600
H438        H  0.01945133  0.84555235  0.50663385     0.09200
H439        H  0.95777049  0.81624988  0.51537232     0.10400
Cu440      Cu  0.99140111  0.88788692  0.49217921     0.44200
Cu441      Cu  0.93893617  0.86311073  0.49915687     0.42000
Cu442      Cu  0.94323821  0.91990347  0.48899878     0.43900
N443        N  0.99163563  0.92085046  0.48882339    -0.33200
N444        N  0.97399469  0.93262949  0.48895408    -0.27500
C445        C  0.97954918  0.95341288  0.48963038    -0.03600
C446        C  0.00174600  0.95471464  0.48954634     0.08600
C447        C  0.00890394  0.93383031  0.48888712     0.02400
H448        H  0.96826706  0.96655536  0.49026942     0.10100
H449        H  0.02541624  0.92843378  0.48962498     0.09200
N450        N  0.91420105  0.90378363  0.49108961    -0.34700
N451        N  0.91253246  0.88303478  0.49503629    -0.26800
C452        C  0.89161143  0.87798720  0.49744993    -0.02100
C453        C  0.87969349  0.89644021  0.49477232     0.06500
C454        C  0.89443383  0.91247623  0.49079831     0.04600
H455        H  0.88565704  0.86229775  0.50184656     0.09700
H456        H  0.89115743  0.92938376  0.48894413     0.08600
N457        N  0.68722858  0.85723678  0.81031259    -0.25800
N458        N  0.68381793  0.86132377  0.83080775    -0.33700
C459        C  0.68149074  0.84269353  0.84148547     0.02500
C460        C  0.68349277  0.82623369  0.82695241     0.08500
C461        C  0.68714743  0.83592358  0.80738481    -0.04600
H462        H  0.67897504  0.84126866  0.85858265     0.09200
H463        H  0.68993733  0.82809872  0.79221487     0.10400
Cu464      Cu  0.68376733  0.89203135  0.84341003     0.44200
Cu465      Cu  0.69269762  0.88076492  0.78740905     0.42000
Cu466      Cu  0.70029153  0.93462855  0.80714975     0.43900
N467        N  0.68734701  0.92378250  0.85250231    -0.33200
N468        N  0.69448474  0.93905238  0.83958825    -0.27500
C469        C  0.69538800  0.95757740  0.85046245    -0.03600
C470        C  0.68809103  0.95389325  0.87104993     0.08600
C471        C  0.68315515  0.93227968  0.87181682     0.02400
H472        H  0.70012930  0.97280202  0.84360739     0.10100
H473        H  0.67694311  0.92337287  0.88536691     0.09200
N474        N  0.70090245  0.92674403  0.77486071    -0.34700
N475        N  0.69794181  0.90706362  0.76769884    -0.26800
C476        C  0.69827454  0.90736583  0.74614951    -0.02100
C477        C  0.70156064  0.92819668  0.73952062     0.06500
C478        C  0.70316754  0.94011508  0.75802592     0.04600
H479        H  0.69598827  0.89349047  0.73609145     0.09700
H480        H  0.70544633  0.95723478  0.75920253     0.08600
N481        N  0.92539963  0.61448614  0.82994280    -0.25800
N482        N  0.92698308  0.61048172  0.85073888    -0.33700
C483        C  0.90699439  0.60824284  0.85885988     0.02500
C484        C  0.89233830  0.61089646  0.84233452     0.08500
C485        C  0.90451274  0.61482887  0.82429838    -0.04600
H486        H  0.90340975  0.60548380  0.87560544     0.09200
H487        H  0.89863349  0.61838260  0.80834703     0.10400
Cu488      Cu  0.95638853  0.60960625  0.86715597     0.44200
Cu489      Cu  0.95126602  0.62131530  0.81010789     0.42000
Cu490      Cu  0.00283243  0.62622294  0.83523057     0.43900
N491        N  0.98779711  0.61167729  0.87917686    -0.33200
N492        N  0.00431032  0.61851874  0.86764226    -0.27500
C493        C  0.02188614  0.61945869  0.88019746    -0.03600
C494        C  0.01640316  0.61255649  0.90051874     0.08600
C495        C  0.99464974  0.60770358  0.89934093     0.02400
H496        H  0.03757931  0.62479378  0.87488755     0.10100
H497        H  0.98441504  0.60242347  0.91233467     0.09200
N498        N  0.99784808  0.63213808  0.80281010    -0.34700
N499        N  0.97879332  0.63018990  0.79357541    -0.26800
C500        C  0.98059746  0.63499067  0.77261685    -0.02100
C501        C  0.00178796  0.64017728  0.76854423     0.06500
C502        C  0.01234718  0.63820350  0.78794574     0.04600
H503        H  0.96746760  0.63467132  0.76122181     0.09700
H504        H  0.02926289  0.64087861  0.79103964     0.08600
N505        N  0.03771204  0.70847614  0.57931477    -0.25800
N506        N  0.03608109  0.69913401  0.56038586    -0.33700
C507        C  0.03360053  0.71425271  0.54518401     0.02500
C508        C  0.03374492  0.73395727  0.55501651     0.08500
C509        C  0.03634283  0.72980211  0.57660111    -0.04600
H510        H  0.03041400  0.71102992  0.52845655     0.09200
H511        H  0.03576367  0.74127352  0.58951530     0.10400
Cu512      Cu  0.03370910  0.66638619  0.55596382     0.44200
Cu513      Cu  0.03811949  0.69207490  0.60837094     0.42000
Cu514      Cu  0.02644784  0.63576357  0.60428195     0.43900
N515        N  0.02792559  0.63374064  0.55620260    -0.33200
N516        N  0.02449656  0.62270312  0.57398432    -0.27500
C517        C  0.01964412  0.60239008  0.56890628    -0.03600
C518        C  0.02039169  0.60047703  0.54690972     0.08600
C519        C  0.02567578  0.62065280  0.53930247     0.02400
H520        H  0.01563661  0.58999427  0.58038716     0.10100
H521        H  0.02689874  0.62567905  0.52273610     0.09200
N522        N  0.03040634  0.65139559  0.63314351    -0.34700
N523        N  0.03483416  0.67202197  0.63484439    -0.26800
C524        C  0.03540857  0.67723804  0.65576709    -0.02100
C525        C  0.03122259  0.65895283  0.66759944     0.06500
C526        C  0.02809661  0.64291815  0.65283162     0.04600
H527        H  0.03795081  0.69323316  0.66183159     0.09700
H528        H  0.02376433  0.62644976  0.65609087     0.08600
N529        N  0.70902827  0.68962005  0.84003314    -0.25800
N530        N  0.68928599  0.68582234  0.84697023    -0.33700
C531        C  0.67841481  0.70444700  0.84767583     0.02500
C532        C  0.69207813  0.72055519  0.84087991     0.08500
C533        C  0.71128326  0.71067579  0.83615828    -0.04600
H534        H  0.66190158  0.70610907  0.85283632     0.09200
H535        H  0.72591736  0.71822812  0.83056705     0.10400
Cu536      Cu  0.67837503  0.65535365  0.85500335     0.44200
Cu537      Cu  0.73257076  0.66641038  0.83719647     0.42000
Cu538      Cu  0.71829556  0.61238763  0.85080972     0.43900
N539        N  0.67134506  0.62301686  0.85888420    -0.33200
N540        N  0.68555416  0.60745220  0.85648755    -0.27500
C541        C  0.67528679  0.58851025  0.85794589    -0.03600
C542        C  0.65372320  0.59230697  0.86176791     0.08600
C543        C  0.65179761  0.61435958  0.86231117     0.02400
H544        H  0.68294453  0.57308325  0.85619942     0.10100
H545        H  0.63713081  0.62346636  0.86412141     0.09200
N546        N  0.74986907  0.62203468  0.84465081    -0.34700
N547        N  0.75487770  0.64190811  0.83923257    -0.26800
C548        C  0.77634067  0.64355321  0.83703884    -0.02100
C549        C  0.78527770  0.62379389  0.84130413     0.06500
C550        C  0.76812391  0.61047627  0.84609373     0.04600
H551        H  0.78482869  0.65822093  0.83327952     0.09700
H552        H  0.76887501  0.59380553  0.85077832     0.08600
N553        N  0.75598494  0.93207709  0.54888649    -0.25800
N554        N  0.74661215  0.93123770  0.52984778    -0.33700
C555        C  0.76102941  0.92427179  0.51538349     0.02500
C556        C  0.78022354  0.92055339  0.52592937     0.08500
C557        C  0.77653655  0.92566340  0.54706908    -0.04600
H558        H  0.75777978  0.92216928  0.49848689     0.09200
H559        H  0.78792186  0.92482421  0.56017976     0.10400
Cu560      Cu  0.71465918  0.93974504  0.52445501     0.44200
Cu561      Cu  0.74056895  0.94144983  0.57669981     0.42000
Cu562      Cu  0.68525797  0.95766529  0.57137632     0.43900
N563        N  0.68286853  0.95025483  0.52355730    -0.33200
N564        N  0.67249859  0.95740312  0.54057201    -0.27500
C565        C  0.65266563  0.96367354  0.53463890    -0.03600
C566        C  0.65033097  0.96017653  0.51285448     0.08600
C567        C  0.66974702  0.95154986  0.50639162     0.02400
H568        H  0.64074478  0.97000548  0.54549459     0.10100
H569        H  0.67413697  0.94686578  0.49031037     0.09200
N570        N  0.70082889  0.95465747  0.60072789    -0.34700
N571        N  0.72120136  0.94886520  0.60258483    -0.26800
C572        C  0.72620531  0.94698728  0.62348324    -0.02100
C573        C  0.70813093  0.95184718  0.63527061     0.06500
C574        C  0.69229283  0.95658229  0.62044641     0.04600
H575        H  0.74157982  0.94159392  0.62958070     0.09700
H576        H  0.67562788  0.96030734  0.62368432     0.08600
N577        N  0.18212370  0.62249667  0.16389692    -0.25800
N578        N  0.16288226  0.62022761  0.15510824    -0.33700
C579        C  0.14779559  0.62541547  0.16965580     0.02500
C580        C  0.15813576  0.63114504  0.18838883     0.08500
C581        C  0.17982526  0.62913462  0.18423851    -0.04600
H582        H  0.13067277  0.62574141  0.16655841     0.09200
H583        H  0.19299250  0.63297031  0.19491531     0.10400
Cu584      Cu  0.15835845  0.61244262  0.12303952     0.44200
Cu585      Cu  0.21068299  0.61872981  0.14723373     0.42000
Cu586      Cu  0.20648330  0.61427073  0.08958809     0.43900
N587        N  0.15797887  0.60929765  0.08986633    -0.33200
N588        N  0.17522665  0.61127980  0.07760148    -0.27500
C589        C  0.16904936  0.61084467  0.05689322    -0.03600
C590        C  0.14699213  0.60795438  0.05612151     0.08600
C591        C  0.14050632  0.60703250  0.07730148     0.02400
H592        H  0.17982243  0.61252799  0.04339219     0.10100
H593        H  0.12417265  0.60583660  0.08314635     0.09200
N594        N  0.23576015  0.61579069  0.10600228    -0.34700
N595        N  0.23714044  0.61718650  0.12711351    -0.26800
C596        C  0.25799370  0.61816911  0.13285401    -0.02100
C597        C  0.27030543  0.61731143  0.11451125     0.06500
C598        C  0.25579337  0.61582769  0.09775483     0.04600
H599        H  0.26371709  0.61973400  0.14915525     0.09700
H600        H  0.25948143  0.61509509  0.08083911     0.08600
N601        N  0.19168986  0.89454901  0.40432032    -0.25800
N602        N  0.17088309  0.89740928  0.40770448    -0.33700
C603        C  0.16065176  0.87851891  0.40581090     0.02500
C604        C  0.17573527  0.86311271  0.40100554     0.08500
C605        C  0.19522814  0.87371993  0.40014715    -0.04600
H606        H  0.14350821  0.87622836  0.40771780     0.09200
H607        H  0.21079609  0.86687099  0.39665502     0.10400
Cu608      Cu  0.15718475  0.92675142  0.41494141     0.44200
Cu609      Cu  0.21428080  0.91917750  0.40543810     0.42000
Cu610      Cu  0.19445086  0.97036679  0.42375131     0.43900
N611        N  0.14779280  0.95712277  0.42437370    -0.33200
N612        N  0.16154986  0.97265991  0.42877165    -0.27500
C613        C  0.15054061  0.99014096  0.43475630    -0.03600
C614        C  0.12884364  0.98553295  0.43365161     0.08600
C615        C  0.12763421  0.96445737  0.42700570     0.02400
H616        H  0.15777026  0.00543514  0.43848923     0.10100
H617        H  0.11320653  0.95521203  0.42405586     0.09200
N618        N  0.22604191  0.96523765  0.41436826    -0.34700
N619        N  0.23329661  0.94656589  0.40758530    -0.26800
C620        C  0.25415348  0.94870049  0.40217343    -0.02100
C621        C  0.26020377  0.96966538  0.40572987     0.06500
C622        C  0.24205874  0.97974403  0.41340800     0.04600
H623        H  0.26408281  0.93598689  0.39590822     0.09700
H624        H  0.24050435  0.99641107  0.41774184     0.08600
N625        N  0.46206013  0.91790079  0.15045710    -0.25800
N626        N  0.45691837  0.93652656  0.14171094    -0.33700
C627        C  0.45226065  0.95051062  0.15735764     0.02500
C628        C  0.45456410  0.94011142  0.17677615     0.08500
C629        C  0.46078136  0.91951188  0.17191584    -0.04600
H630        H  0.44758523  0.96698873  0.15475632     0.09200
H631        H  0.46409240  0.90664078  0.18309141     0.10400
Cu632      Cu  0.45682458  0.94211105  0.10892327     0.44200
Cu633      Cu  0.47027736  0.89116492  0.13268743     0.42000
Cu634      Cu  0.47627844  0.89927787  0.07523176     0.43900
N635        N  0.46057790  0.94488255  0.07601052    -0.33200
N636        N  0.46876866  0.92968625  0.06382144    -0.27500
C637        C  0.47033147  0.93707405  0.04357616    -0.03600
C638        C  0.46251484  0.95782413  0.04303875     0.08600
C639        C  0.45635397  0.96216557  0.06381028     0.02400
H640        H  0.47639969  0.92791508  0.03022846     0.10100
H641        H  0.44978549  0.97702538  0.06975284     0.09200
N642        N  0.47865999  0.86960763  0.09027981    -0.34700
N643        N  0.47635385  0.86669686  0.11117296    -0.26800
C644        C  0.47710452  0.84561254  0.11555940    -0.02100
C645        C  0.48004677  0.83482640  0.09655542     0.06500
C646        C  0.48093103  0.85041606  0.08083187     0.04600
H647        H  0.47489651  0.83865028  0.13131117     0.09700
H648        H  0.48230640  0.84798638  0.06373585     0.08600
N649        N  0.45163459  0.69820345  0.09401706    -0.25800
N650        N  0.47142062  0.69348859  0.08793016    -0.33700
C651        C  0.48255163  0.71182790  0.08519043     0.02500
C652        C  0.46897722  0.72870778  0.08974976     0.08500
C653        C  0.44957174  0.71956253  0.09529028    -0.04600
H654        H  0.49927013  0.71276081  0.08049884     0.09200
H655        H  0.43506372  0.72777749  0.10008724     0.10400
Cu656      Cu  0.48201040  0.66208610  0.08467500     0.44200
Cu657      Cu  0.42839112  0.67543272  0.10061702     0.42000
Cu658      Cu  0.44406673  0.61974661  0.10067609     0.43900
N659        N  0.48950404  0.62963674  0.08592025    -0.33200
N660        N  0.47634190  0.61443240  0.09285096    -0.27500
C661        C  0.48697894  0.59562626  0.09293092    -0.03600
C662        C  0.50766254  0.59919502  0.08544127     0.08600
C663        C  0.50858297  0.62083621  0.08097435     0.02400
H664        H  0.47999853  0.58042167  0.09752688     0.10100
H665        H  0.52228844  0.62964595  0.07488748     0.09200
N666        N  0.41243590  0.63007470  0.10546469    -0.34700
N667        N  0.40698260  0.65053180  0.10545973    -0.26800
C668        C  0.38557842  0.65221719  0.10796129    -0.02100
C669        C  0.37710880  0.63188977  0.10961195     0.06500
C670        C  0.39448145  0.61816537  0.10795457     0.04600
H671        H  0.37679866  0.66715300  0.10801670     0.09700
H672        H  0.39406151  0.60085990  0.10803021     0.08600
N673        N  0.42517927  0.99298369  0.30444755    -0.25800
N674        N  0.44625495  0.99386044  0.30701819    -0.33700
C675        C  0.45585815  0.98689219  0.28905012     0.02500
C676        C  0.43996835  0.98141832  0.27458690     0.08500
C677        C  0.42071901  0.98542433  0.28478151    -0.04600
H678        H  0.47306084  0.98552835  0.28687307     0.09200
H679        H  0.40469640  0.98267849  0.27857654     0.10400
Cu680      Cu  0.46033560  0.00313935  0.33559423     0.44200
Cu681      Cu  0.40393010  0.00081616  0.32862988     0.42000
Cu682      Cu  0.42546221  0.01585622  0.38108804     0.43900
N683        N  0.47132250  0.00956891  0.36624370    -0.33200
N684        N  0.45907968  0.01462599  0.38279405    -0.27500
C685        C  0.47155815  0.01548779  0.40049932    -0.03600
C686        C  0.49248712  0.01041052  0.39472401     0.08600
C687        C  0.49165637  0.00681240  0.37296714     0.02400
H688        H  0.46554561  0.01787509  0.41656664     0.10100
H689        H  0.50468044  0.00133921  0.36291750     0.09200
N690        N  0.39271736  0.01118762  0.37466027    -0.34700
N691        N  0.38523836  0.00587312  0.35552649    -0.26800
C692        C  0.36400359  0.00209435  0.35688330    -0.02100
C693        C  0.35773298  0.00514321  0.37779320     0.06500
C694        C  0.37625152  0.01086027  0.38873055     0.04600
H695        H  0.35410045  0.99644098  0.34380026     0.09700
H696        H  0.37785139  0.01353416  0.40577421     0.08600
N697        N  0.14482673  0.73230685  0.35935892    -0.25800
N698        N  0.14508207  0.72630451  0.37971862    -0.33700
C699        C  0.15061095  0.74319214  0.39189475     0.02500
C700        C  0.15398926  0.76051767  0.37848835     0.08500
C701        C  0.15020699  0.75313059  0.35802454    -0.04600
H702        H  0.15169234  0.74294266  0.40919993     0.09200
H703        H  0.15095679  0.76226550  0.34327513     0.10400
Cu704      Cu  0.13668463  0.69570986  0.38993566     0.44200
Cu705      Cu  0.13644216  0.71218528  0.33430207     0.42000
Cu706      Cu  0.11650997  0.65967745  0.34898041     0.43900
N707        N  0.12501563  0.66513292  0.39622964    -0.33200
N708        N  0.11684706  0.65229793  0.38149849    -0.27500
C709        C  0.11052798  0.63391234  0.39095266    -0.03600
C710        C  0.11512702  0.63523782  0.41263593     0.08600
C711        C  0.12437458  0.65515663  0.41534798     0.02400
H712        H  0.10393936  0.62031146  0.38251995     0.10100
H713        H  0.13041316  0.66185350  0.43015753     0.09200
N714        N  0.12082953  0.66974520  0.31748178    -0.34700
N715        N  0.12816058  0.68891499  0.31210946    -0.26800
C716        C  0.13117536  0.68964927  0.29075921    -0.02100
C717        C  0.12544530  0.67003424  0.28238599     0.06500
C718        C  0.11902135  0.65777817  0.29969401     0.04600
H719        H  0.13823064  0.70301021  0.28219527     0.09700
H720        H  0.11462201  0.64102324  0.29956448     0.08600
N721        N  0.68843042  0.86583168  0.09859136    -0.25800
N722        N  0.68696275  0.86868483  0.07762356    -0.33700
C723        C  0.68733285  0.84949809  0.06792027     0.02500
C724        C  0.68916455  0.83394296  0.08357932     0.08500
C725        C  0.68982346  0.84474688  0.10280275    -0.04600
H726        H  0.68610520  0.84709107  0.05080311     0.09200
H727        H  0.69096094  0.83782267  0.11868523     0.10400
Cu728      Cu  0.68350127  0.89847252  0.06337172     0.44200
Cu729      Cu  0.68746222  0.89067668  0.12056247     0.42000
Cu730      Cu  0.67330720  0.94280799  0.09947585     0.43900
N731        N  0.67644496  0.92925842  0.05324180    -0.33200
N732        N  0.67153428  0.94507609  0.06635757    -0.27500
C733        C  0.66584167  0.96230070  0.05468483    -0.03600
C734        C  0.66767154  0.95716285  0.03327807     0.08600
C735        C  0.67444771  0.93612537  0.03288819     0.02400
H736        H  0.66083894  0.97746872  0.06130408     0.10100
H737        H  0.67693048  0.92628284  0.01889681     0.09200
N738        N  0.67853119  0.93674067  0.13177017    -0.34700
N739        N  0.68397499  0.91773335  0.13944857    -0.26800
C740        C  0.68621808  0.91908109  0.16085382    -0.02100
C741        C  0.68196782  0.93988747  0.16681261     0.06500
C742        C  0.67716823  0.95069346  0.14807685     0.04600
H743        H  0.69043860  0.90585345  0.17127897     0.09700
H744        H  0.67291061  0.96739662  0.14639267     0.08600
N745        N  0.91818055  0.87552921  0.43452720    -0.25800
N746        N  0.93921839  0.87868468  0.43445026    -0.33700
C747        C  0.94918022  0.85975860  0.43192998     0.02500
C748        C  0.93360301  0.84407878  0.43033887     0.08500
C749        C  0.91416260  0.85454293  0.43199324    -0.04600
H750        H  0.96639847  0.85771501  0.43055003     0.09200
H751        H  0.89827722  0.84757819  0.43066756     0.10400
Cu752      Cu  0.95313786  0.90881209  0.43586503     0.44200
Cu753      Cu  0.89590070  0.90005625  0.43620417     0.42000
Cu754      Cu  0.91649946  0.95360717  0.44321252     0.43900
N755        N  0.96276578  0.94055869  0.43708514    -0.33200
N756        N  0.94961830  0.95668214  0.44104991    -0.27500
C757        C  0.96086110  0.97506918  0.44050993    -0.03600
C758        C  0.98199340  0.97026595  0.43568923     0.08600
C759        C  0.98262192  0.94831764  0.43345065     0.02400
H760        H  0.95390111  0.99083059  0.44214191     0.10100
H761        H  0.99640446  0.93871158  0.42914288     0.09200
N762        N  0.88420560  0.94676107  0.43851054    -0.34700
N763        N  0.87674113  0.92712517  0.43583743    -0.26800
C764        C  0.85578183  0.92812705  0.43059334    -0.02100
C765        C  0.84984615  0.94937128  0.42995942     0.06500
C766        C  0.86817807  0.96080198  0.43497453     0.04600
H767        H  0.84598288  0.91448291  0.42628309     0.09700
H768        H  0.87008747  0.97801179  0.43475296     0.08600
N769        N  0.95978274  0.62204383  0.16601484    -0.25800
N770        N  0.97905778  0.62756825  0.15893587    -0.33700
C771        C  0.99057758  0.63561427  0.17535824     0.02500
C772        C  0.97780363  0.63503403  0.19345236     0.08500
C773        C  0.95846491  0.62639564  0.18702321    -0.04600
H774        H  0.00689875  0.64151924  0.17415426     0.09200
H775        H  0.94434853  0.62372336  0.19679767     0.10400
Cu776      Cu  0.98835799  0.62370065  0.12720742     0.44200
Cu777      Cu  0.93551595  0.61007113  0.14681649     0.42000
Cu778      Cu  0.94752092  0.60193658  0.09111860     0.43900
N779        N  0.99390736  0.61583877  0.09535496    -0.33200
N780        N  0.97939723  0.60706759  0.08256090    -0.27500
C781        C  0.98842740  0.60340074  0.06333872    -0.03600
C782        C  0.00954001  0.61044951  0.06402766     0.08600
C783        C  0.01241579  0.61829630  0.08448766     0.02400
H784        H  0.98002666  0.59675321  0.04970865     0.10100
H785        H  0.02695522  0.62523786  0.09104413     0.09200
N786        N  0.91659146  0.60043414  0.10356879    -0.34700
N787        N  0.91233120  0.60303369  0.12414310    -0.26800
C788        C  0.89090285  0.60284242  0.12701560    -0.02100
C789        C  0.88128854  0.59997822  0.10731040     0.06500
C790        C  0.89792897  0.59858693  0.09275542     0.04600
H791        H  0.88295035  0.60574514  0.14213159     0.09700
H792        H  0.89658516  0.59735192  0.07551893     0.08600
N793        N  0.70978789  0.69513551  0.07818537    -0.25800
N794        N  0.68878405  0.69256407  0.07595958    -0.33700
C795        C  0.67940973  0.71196129  0.07487769     0.02500
C796        C  0.69536364  0.72728983  0.07648041     0.08500
C797        C  0.71437441  0.71615650  0.07859149    -0.04600
H798        H  0.66229123  0.71466100  0.07334574     0.09200
H799        H  0.73034202  0.72279176  0.08051100     0.10400
Cu800      Cu  0.67412560  0.66265569  0.07561699     0.44200
Cu801      Cu  0.73132267  0.67008670  0.08109721     0.42000
Cu802      Cu  0.70989005  0.61701704  0.08608390     0.43900
N803        N  0.66382527  0.63118594  0.07917217    -0.33200
N804        N  0.67664234  0.61497560  0.08404458    -0.27500
C805        C  0.66476227  0.59708965  0.08605445    -0.03600
C806        C  0.64351981  0.60225030  0.08200396     0.08600
C807        C  0.64351447  0.62390430  0.07751833     0.02400
H808        H  0.67124934  0.58135598  0.08931156     0.10100
H809        H  0.62975504  0.63366986  0.07333521     0.09200
N810        N  0.74261073  0.62353454  0.08623272    -0.34700
N811        N  0.75037178  0.64315908  0.08434860    -0.26800
C812        C  0.77194047  0.64247184  0.08557815    -0.02100
C813        C  0.77797799  0.62142730  0.08832794     0.06500
C814        C  0.75908962  0.60976711  0.08869510     0.04600
H815        H  0.78238466  0.65632458  0.08495217     0.09700
H816        H  0.75739485  0.59267865  0.09099505     0.08600
N817        N  0.95189652  0.71577897  0.37665273    -0.25800
N818        N  0.94854622  0.70765580  0.39600145    -0.33700
C819        C  0.94454960  0.72372796  0.40971371     0.02500
C820        C  0.94542451  0.74273161  0.39841011     0.08500
C821        C  0.95008962  0.73720432  0.37756350    -0.04600
H822        H  0.94172585  0.72172608  0.42670789     0.09200
H823        H  0.95248356  0.74795257  0.36413395     0.10400
Cu824      Cu  0.95117751  0.67534299  0.40353489     0.44200
Cu825      Cu  0.96028629  0.69791159  0.34995330     0.42000
Cu826      Cu  0.97243855  0.64293891  0.36074219     0.43900
N827        N  0.95900493  0.64322637  0.40712542    -0.33200
N828        N  0.96741384  0.63175354  0.39150466    -0.27500
C829        C  0.97241382  0.61223040  0.39902521    -0.03600
C830        C  0.96684541  0.61129897  0.42045699     0.08600
C831        C  0.95823293  0.63115144  0.42503452     0.02400
H832        H  0.97973107  0.59976686  0.38956198     0.10100
H833        H  0.95260555  0.63668728  0.44045042     0.09200
N834        N  0.97536131  0.65660029  0.33070334    -0.34700
N835        N  0.97066926  0.67681977  0.32653284    -0.26800
C836        C  0.97345366  0.68053327  0.30544809    -0.02100
C837        C  0.98028861  0.66174152  0.29611151     0.06500
C838        C  0.98126317  0.64688004  0.31247158     0.04600
H839        H  0.97030531  0.69562484  0.29748781     0.09700
H840        H  0.98541572  0.63012974  0.31117759     0.08600
N841        N  0.69885378  0.98035673  0.30042446    -0.25800
N842        N  0.67809277  0.98492987  0.30104893    -0.33700
C843        C  0.66952828  0.98182925  0.28146466     0.02500
C844        C  0.68571742  0.97499283  0.26801858     0.08500
C845        C  0.70405663  0.97419734  0.28046952    -0.04600
H846        H  0.65273135  0.98400036  0.27746426     0.09200
H847        H  0.71993047  0.96918550  0.27552000     0.10400
Cu848      Cu  0.66230867  0.99417651  0.32882598     0.44200
Cu849      Cu  0.71909328  0.98207009  0.32684379     0.42000
Cu850      Cu  0.69606437  0.00459120  0.37499304     0.43900
N851        N  0.65047564  0.00227708  0.35883548    -0.33200
N852        N  0.66284121  0.00719501  0.37536446    -0.27500
C853        C  0.65039891  0.01009582  0.39272118    -0.03600
C854        C  0.62920550  0.00655724  0.38689223     0.08600
C855        C  0.62987442  0.00154018  0.36535862     0.02400
H856        H  0.65650716  0.01253604  0.40877056     0.10100
H857        H  0.61650431  0.99652314  0.35544469     0.09200
N858        N  0.72751661  0.99386719  0.37291832    -0.34700
N859        N  0.73580946  0.98522580  0.35547628    -0.26800
C860        C  0.75578456  0.97821352  0.35993454    -0.02100
C861        C  0.76014720  0.98270175  0.38113350     0.06500
C862        C  0.74197263  0.99257326  0.38894055     0.04600
H863        H  0.76608209  0.96994445  0.34874336     0.09700
H864        H  0.73914335  0.99775300  0.40521025     0.08600
N865        N  0.94774233  0.41989383  0.14106054    -0.25800
N866        N  0.96784130  0.42570527  0.13733541    -0.33700
C867        C  0.97840400  0.42731159  0.15610771     0.02500
C868        C  0.96416071  0.42230657  0.17232249     0.08500
C869        C  0.94490432  0.41766846  0.16231718    -0.04600
H870        H  0.99525068  0.43135803  0.15774986     0.09200
H871        H  0.93005177  0.41268459  0.16985757     0.10400
Cu872      Cu  0.97982296  0.42981621  0.10670374     0.44200
Cu873      Cu  0.92551028  0.41485259  0.11680012     0.42000
Cu874      Cu  0.94388357  0.41832578  0.06158718     0.43900
N875        N  0.98916402  0.42994151  0.07492769    -0.33200
N876        N  0.97660130  0.42470589  0.05862194    -0.27500
C877        C  0.98827742  0.42535466  0.04048091    -0.03600
C878        C  0.00899217  0.43156549  0.04572964     0.08600
C879        C  0.00894751  0.43449971  0.06758227     0.02400
H880        H  0.98199530  0.42222446  0.02462191     0.10100
H881        H  0.02237611  0.43935591  0.07749455     0.09200
N882        N  0.91185243  0.41404421  0.07023736    -0.34700
N883        N  0.90537979  0.41257115  0.09038555    -0.26800
C884        C  0.88385346  0.41059393  0.09078782    -0.02100
C885        C  0.87645378  0.41088904  0.06996345     0.06500
C886        C  0.89451728  0.41310674  0.05727018     0.04600
H887        H  0.87428654  0.40953924  0.10522138     0.09700
H888        H  0.89502106  0.41436910  0.03998121     0.08600
N889        N  0.86376049  0.15862107  0.40030858    -0.25800
N890        N  0.87144852  0.13958252  0.39525551    -0.33700
C891        C  0.85542984  0.12753052  0.38722132     0.02500
C892        C  0.83687184  0.13960842  0.38722750     0.08500
C893        C  0.84262485  0.15921403  0.39559857    -0.04600
H894        H  0.85716924  0.11117298  0.38190276     0.09200
H895        H  0.83227837  0.17287815  0.39809614     0.10400
Cu896      Cu  0.90325221  0.13074310  0.40002602     0.44200
Cu897      Cu  0.88263701  0.18292168  0.41290713     0.42000
Cu898      Cu  0.93812822  0.16991191  0.42531038     0.43900
N899        N  0.93497649  0.12485097  0.40852399    -0.33200
N900        N  0.94741625  0.13878113  0.41855719    -0.27500
C901        C  0.96677919  0.12983138  0.42210317    -0.03600
C902        C  0.96651464  0.10935082  0.41372556     0.08600
C903        C  0.94616660  0.10678099  0.40519290     0.08400
H904        H  0.98020249  0.13790522  0.42961030     0.10100
H905        H  0.93992411  0.09277479  0.39715195     0.09200
N906        N  0.92581425  0.20075160  0.42614867    -0.34700
N907        N  0.90552876  0.20540747  0.42173134    -0.26800
C908        C  0.90334754  0.22678252  0.42059044    -0.02100
C909        C  0.92315617  0.23596450  0.42445869     0.06500
C910        C  0.93707398  0.21908355  0.42787616     0.04600
H911        H  0.88885881  0.23491958  0.41547967     0.09700
H912        H  0.95436456  0.21996943  0.42966702     0.08600
N913        N  0.63541785  0.12477529  0.12659562    -0.25800
N914        N  0.63533591  0.10530016  0.11837554    -0.33700
C915        C  0.63608165  0.09091968  0.13452583     0.02500
C916        C  0.63659006  0.10198309  0.15365683     0.08500
C917        C  0.63617779  0.12334546  0.14808617    -0.04600
H918        H  0.63708284  0.07377502  0.13244980     0.09200
H919        H  0.63731786  0.13687712  0.15878404     0.10400
Cu920      Cu  0.63673034  0.09948661  0.08551482     0.44200
Cu921      Cu  0.63736442  0.15249590  0.10849546     0.42000
Cu922      Cu  0.65102210  0.14574808  0.05289465     0.43900
N923        N  0.64283803  0.09819096  0.05268895    -0.33200
N924        N  0.64916654  0.11489911  0.04121975    -0.27500
C925        C  0.65396187  0.10848617  0.02125957    -0.03600
C926        C  0.65014893  0.08678642  0.01994008     0.08600
C927        C  0.64305686  0.08073457  0.04012908     0.02400
H928        H  0.65992304  0.11886677  0.00866939     0.10100
H929        H  0.63932174  0.06469820  0.04556952     0.09200
N930        N  0.64927470  0.17523699  0.06764106    -0.34700
N931        N  0.64383888  0.17771265  0.08795290    -0.26800
C932        C  0.64444221  0.19863360  0.09279882    -0.02100
C933        C  0.65050185  0.20970436  0.07464074     0.06500
C934        C  0.65348231  0.19452657  0.05897015     0.04600
H935        H  0.64118558  0.20518953  0.10847446     0.09700
H936        H  0.65863557  0.19721130  0.04262482     0.08600
N937        N  0.73943636  0.38791848  0.05243109    -0.25800
N938        N  0.73561848  0.40868990  0.05370852    -0.33700
C939        C  0.75457849  0.41919986  0.05332290     0.02500
C940        C  0.77085060  0.40421957  0.05162458     0.08500
C941        C  0.76073432  0.38462614  0.05114317    -0.04600
H942        H  0.75640182  0.43632183  0.05505985     0.09200
H943        H  0.76829842  0.36904664  0.05091292     0.10400
Cu944      Cu  0.70478512  0.42115160  0.05814019     0.44200
Cu945      Cu  0.71621174  0.36454554  0.05531683     0.42000
Cu946      Cu  0.66341861  0.38096584  0.07038872     0.43900
N947        N  0.67294390  0.42832917  0.06597507    -0.33200
N948        N  0.65845649  0.41369762  0.07128726    -0.27500
C949        C  0.64021439  0.42348506  0.07726416    -0.03600
C950        C  0.64312683  0.44527884  0.07530929     0.08600
C951        C  0.66403542  0.44786057  0.06805525     0.02400
H952        H  0.62583192  0.41528834  0.08261094     0.10100
H953        H  0.67239471  0.46280376  0.06525520     0.09200
N954        N  0.67227193  0.34918614  0.06779450    -0.34700
N955        N  0.69182009  0.34324197  0.06208536    -0.26800
C956        C  0.69287100  0.32178305  0.06193354    -0.02100
C957        C  0.67300350  0.31395995  0.06777916     0.06500
C958        C  0.66024868  0.33162045  0.07139646     0.04600
H959        H  0.70704311  0.31262998  0.05790171     0.09700
H960        H  0.64355601  0.33173850  0.07626160     0.08600
N961        N  0.67257360  0.07426998  0.28651272    -0.25800
N962        N  0.65196750  0.07072860  0.29046911    -0.33700
C963        C  0.64115666  0.07017907  0.27175865     0.02500
C964        C  0.65569537  0.07343265  0.25535155     0.08500
C965        C  0.67542242  0.07599590  0.26519994    -0.04600
H966        H  0.62387798  0.06867751  0.27030824     0.09200
H967        H  0.69050412  0.08006156  0.25756241     0.10400
Cu968      Cu  0.63906441  0.06968605  0.32116632     0.44200
Cu969      Cu  0.69531965  0.08013307  0.31018880     0.42000
Cu970      Cu  0.67417074  0.08925759  0.36328949     0.43900
N971        N  0.62951409  0.07336012  0.35283496    -0.33200
N972        N  0.64199211  0.08163101  0.36787160    -0.27500
C973        C  0.63061840  0.08344683  0.38609035    -0.03600
C974        C  0.61010926  0.07568865  0.38238478     0.08600
C975        C  0.61001073  0.06923854  0.36124288     0.02400
H976        H  0.63692984  0.08959237  0.40101234     0.10100
H977        H  0.59658396  0.06256760  0.35245104     0.09200
N978        N  0.70613706  0.09424594  0.35508222    -0.34700
N979        N  0.71395824  0.09058560  0.33574099    -0.26800
C980        C  0.73492212  0.09600205  0.33544017    -0.02100
C981        C  0.74044233  0.10337547  0.35552893     0.06500
C982        C  0.72191557  0.10205762  0.36761503     0.04600
H983        H  0.74520189  0.09510650  0.32150265     0.09700
H984        H  0.71991658  0.10678191  0.38414816     0.08600
N985        N  0.97129501  0.39520164  0.31025142    -0.25800
N986        N  0.97624696  0.41562802  0.31283765    -0.33700
C987        C  0.97919615  0.42479117  0.29351854     0.02500
C988        C  0.97601474  0.40938642  0.27809688     0.08500
C989        C  0.97099824  0.39083187  0.28913860    -0.04600
H990        H  0.98273551  0.44155883  0.29092076     0.09200
H991        H  0.96678980  0.37548618  0.28234917     0.10400
Cu992      Cu  0.97741269  0.43066108  0.34228586     0.44200
Cu993      Cu  0.96372858  0.37466980  0.33556163     0.42000
Cu994      Cu  0.96023538  0.39977707  0.38795527     0.43900
N995        N  0.97622215  0.44269158  0.37308492    -0.33200
N996        N  0.96913845  0.43162698  0.38974171    -0.27500
C997        C  0.97054234  0.44382490  0.40738613    -0.03600
C998        C  0.97910802  0.46342886  0.40148849     0.08600
C999        C  0.98263310  0.46211263  0.37970529     0.02400
H1000       H  0.96666940  0.43842305  0.42341727     0.10100
H1001       H  0.98970056  0.47424003  0.36946743     0.09200
N1002       N  0.95461323  0.36759064  0.38266584    -0.34700
N1003       N  0.95595116  0.35831080  0.36369302    -0.26800
C1004       C  0.95173178  0.33728353  0.36603050    -0.02100
C1005       C  0.94762348  0.33332078  0.38743572     0.06500
C1006       C  0.94957368  0.35277991  0.39753952     0.04600
H1007       H  0.95178516  0.32576604  0.35314216     0.09700
H1008       H  0.94764170  0.35596272  0.41445303     0.08600
N1009       N  0.24302122  0.45355431  0.10636124    -0.25800
N1010       N  0.23675272  0.44825613  0.08683269    -0.33700
C1011       C  0.25412093  0.44342875  0.07500753     0.02500
C1012       C  0.27207907  0.44582204  0.08776149     0.08500
C1013       C  0.26459313  0.45222664  0.10751730    -0.04600
H1014       H  0.25364966  0.43838100  0.05845210     0.09200
H1015       H  0.27403198  0.45538929  0.12173889     0.10400
Cu1016     Cu  0.20492473  0.44782495  0.07722201     0.44200
Cu1017     Cu  0.22173144  0.46134802  0.13061488     0.42000
Cu1018     Cu  0.16520462  0.46491058  0.11595693     0.43900
N1019       N  0.17259324  0.45134389  0.07032808    -0.33200
N1020       N  0.15822061  0.45864084  0.08406309    -0.27500
C1021       C  0.13905889  0.46017692  0.07411163    -0.03600
C1022       C  0.14148142  0.45311102  0.05330889     0.08600
C1023       C  0.16293244  0.44767237  0.05143022     0.02400
H1024       H  0.12437950  0.46564125  0.08158677     0.10100
H1025       H  0.17105409  0.44191908  0.03726776     0.09200
N1026       N  0.17651818  0.46721881  0.14717971    -0.34700
N1027       N  0.19710926  0.46600392  0.15245333    -0.26800
C1028       C  0.19897386  0.46683675  0.17390980    -0.02100
C1029       C  0.17862248  0.46869997  0.18243909     0.06500
C1030       C  0.16472942  0.46882111  0.16516978     0.04600
H1031       H  0.21396926  0.46547816  0.18263024     0.09700
H1032       H  0.14734404  0.46935917  0.16563593     0.08600
N1033       N  0.47572256  0.13834976  0.13004956    -0.25800
N1034       N  0.47703338  0.11880716  0.12214075    -0.33700
C1035       C  0.47656770  0.10455589  0.13836313     0.02500
C1036       C  0.47498649  0.11572550  0.15731386     0.08500
C1037       C  0.47442127  0.13707384  0.15154163    -0.04600
H1038       H  0.47632593  0.08736616  0.13640733     0.09200
H1039       H  0.47220927  0.15060629  0.16205655     0.10400
Cu1040     Cu  0.47677669  0.11244210  0.08958683     0.44200
Cu1041     Cu  0.47364889  0.16553321  0.11095554     0.42000
Cu1042     Cu  0.46503037  0.15677802  0.05375783     0.43900
N1043       N  0.47241600  0.10917728  0.05683820    -0.33200
N1044       N  0.46683909  0.12502971  0.04386432    -0.27500
C1045       C  0.46386776  0.11715772  0.02400670    -0.03600
C1046       C  0.46825660  0.09546355  0.02450187     0.08600
C1047       C  0.47358754  0.09095156  0.04555623     0.02400
H1048       H  0.45925003  0.12659109  0.01016823     0.10100
H1049       H  0.47747060  0.07545850  0.05231815     0.09200
N1050       N  0.46805983  0.18688373  0.06769297    -0.34700
N1051       N  0.47134646  0.18994326  0.08842345    -0.26800
C1052       C  0.47343864  0.21103675  0.09211003    -0.02100
C1053       C  0.47143282  0.22169094  0.07281852     0.06500
C1054       C  0.46800979  0.20601580  0.05765246     0.04600
H1055       H  0.47641778  0.21803712  0.10766024     0.09700
H1056       H  0.46591160  0.20828746  0.04057983     0.08600
N1057       N  0.21269647  0.16779590  0.36726058    -0.25800
N1058       N  0.20607551  0.14785023  0.37006608    -0.33700
C1059       C  0.22227267  0.13444099  0.36524861     0.02500
C1060       C  0.23980795  0.14657964  0.35912518     0.08500
C1061       C  0.23326532  0.16761449  0.36057063    -0.04600
H1062       H  0.22150032  0.11719824  0.36668708     0.09200
H1063       H  0.24286723  0.18175350  0.35751908     0.10400
Cu1064     Cu  0.17598023  0.13986675  0.38215599     0.44200
Cu1065     Cu  0.19389869  0.19434321  0.37394755     0.42000
Cu1066     Cu  0.14531294  0.18359666  0.40426359     0.43900
N1067       N  0.14708671  0.13593441  0.39838515    -0.33200
N1068       N  0.13665228  0.15178397  0.40770075    -0.27500
C1069       C  0.11906076  0.14392543  0.41751072    -0.03600
C1070       C  0.11815536  0.12218437  0.41379687     0.08600
C1071       C  0.13617275  0.11761829  0.40165462     0.02400
H1072       H  0.10731730  0.15348562  0.42592690     0.10100
H1073       H  0.14104241  0.10213912  0.39570576     0.09200
N1074       N  0.15435344  0.21378120  0.39385750    -0.34700
N1075       N  0.17193293  0.21772127  0.38257902    -0.26800
C1076       C  0.17234393  0.23859601  0.37721953    -0.02100
C1077       C  0.15415934  0.24806480  0.38551832     0.06500
C1078       C  0.14308198  0.23199914  0.39593716     0.04600
H1079       H  0.18470621  0.24616148  0.36762595     0.09700
H1080       H  0.12773229  0.23328854  0.40396406     0.08600
N1081       N  0.41942564  0.08571276  0.28087112    -0.25800
N1082       N  0.43805404  0.07886910  0.28860967    -0.33700
C1083       C  0.45228000  0.07747929  0.27241804     0.02500
C1084       C  0.44207105  0.08369184  0.25374307     0.08500
C1085       C  0.42134487  0.08882369  0.25961666    -0.04600
H1086       H  0.46911178  0.07353787  0.27434514     0.09200
H1087       H  0.40892797  0.09551102  0.24943941     0.10400
Cu1088     Cu  0.44480760  0.07530266  0.32114330     0.44200
Cu1089     Cu  0.39281279  0.09349431  0.29936905     0.42000
Cu1090     Cu  0.40339352  0.09618859  0.35562267     0.43900
N1091       N  0.44922629  0.08028702  0.35384456    -0.33200
N1092       N  0.43428301  0.08907560  0.36600703    -0.27500
C1093       C  0.44270824  0.09337586  0.38536392    -0.03600
C1094       C  0.46384603  0.08666376  0.38562229     0.08600
C1095       C  0.46749309  0.07834666  0.36538296     0.02400
H1096       H  0.43418507  0.10129148  0.39817368     0.10100
H1097       H  0.48262756  0.07263289  0.35909407     0.09200
N1098       N  0.37356686  0.10303873  0.34237780    -0.34700
N1099       N  0.36957547  0.10214823  0.32158366    -0.26800
C1100       C  0.34898959  0.10789122  0.31804828    -0.02100
C1101       C  0.33972037  0.11253107  0.33758940     0.06500
C1102       C  0.35566592  0.10930733  0.35266361     0.04600
H1103       H  0.34142214  0.10874254  0.30244282     0.09700
H1104       H  0.35443859  0.11150232  0.36980438     0.08600
N1105       N  0.14630441  0.43266299  0.31289650    -0.25800
N1106       N  0.14317021  0.45266638  0.31891282    -0.33700
C1107       C  0.14726957  0.46576199  0.30219666     0.02500
C1108       C  0.15330310  0.45324390  0.28503925     0.08500
C1109       C  0.15253265  0.43241379  0.29230301    -0.04600
H1110       H  0.14575995  0.48300040  0.30248494     0.09200
H1111       H  0.15593807  0.41809678  0.28324464     0.10400
Cu1112     Cu  0.13300038  0.46056900  0.34955014     0.44200
Cu1113     Cu  0.14103213  0.40656968  0.33256125     0.42000
Cu1114     Cu  0.11809416  0.41595575  0.38487125     0.43900
N1115       N  0.12158904  0.46404676  0.38060288    -0.33200
N1116       N  0.11520353  0.44802377  0.39300751    -0.27500
C1117       C  0.10769490  0.45600084  0.41154128    -0.03600
C1118       C  0.10991394  0.47798696  0.41091843     0.08600
C1119       C  0.11874436  0.48256367  0.39110142     0.02400
H1120       H  0.10146757  0.44646156  0.42465350     0.10100
H1121       H  0.12238461  0.49822362  0.38458308     0.09200
N1122       N  0.12512116  0.38570516  0.37315855    -0.34700
N1123       N  0.13358550  0.38248085  0.35401534    -0.26800
C1124       C  0.13706298  0.36146098  0.35134861    -0.02100
C1125       C  0.13047077  0.35100802  0.36966280     0.06500
C1126       C  0.12304005  0.36672154  0.38324888     0.04600
H1127       H  0.14437701  0.35442518  0.33733320     0.09700
H1128       H  0.11712545  0.36462263  0.39941746     0.08600
N1129       N  0.40267939  0.40428225  0.05391118    -0.25800
N1130       N  0.40797478  0.42476194  0.05322116    -0.33700
C1131       C  0.39027025  0.43661966  0.05659659     0.02500
C1132       C  0.37313668  0.42284535  0.05944440     0.08500
C1133       C  0.38146717  0.40250057  0.05768198    -0.04600
H1134       H  0.39007283  0.45388972  0.05769747     0.09200
H1135       H  0.37297030  0.38752522  0.05984165     0.10400
Cu1136     Cu  0.43941663  0.43521443  0.05012950     0.44200
Cu1137     Cu  0.42498676  0.37987657  0.05244253     0.42000
Cu1138     Cu  0.48113351  0.39435318  0.05703710     0.43900
N1139       N  0.47201490  0.44172801  0.05181230    -0.33200
N1140       N  0.48702324  0.42715787  0.05548151    -0.27500
C1141       C  0.50604779  0.43712866  0.05805244    -0.03600
C1142       C  0.50280945  0.45891182  0.05560013     0.08600
C1143       C  0.48114030  0.46124538  0.05150178     0.02400
H1144       H  0.52108261  0.42912178  0.06152826     0.10100
H1145       H  0.47245181  0.47609880  0.04945679     0.09200
N1146       N  0.47013914  0.36283471  0.05723326    -0.34700
N1147       N  0.44955625  0.35781475  0.05521866    -0.26800
C1148       C  0.44729403  0.33647109  0.05639938    -0.02100
C1149       C  0.46736203  0.32761713  0.05926210     0.06500
C1150       C  0.48157093  0.34466500  0.05974412     0.04600
H1151       H  0.43208231  0.32807560  0.05561975     0.09700
H1152       H  0.49880977  0.34397252  0.06202409     0.08600
O1153       O  0.60044346  0.54225225  0.10503306    -0.71500
O1154       O  0.55664719  0.49608997  0.09534540    -0.72500
O1155       O  0.60183313  0.49814077  0.09429040    -0.61100
O1156       O  0.55417083  0.54038445  0.10586326    -0.69500
O1157       O  0.55335171  0.54908194  0.07135144    -0.69000
O1158       O  0.60100104  0.50734492  0.05988591    -0.60300
O1159       O  0.55512688  0.50488880  0.06084824    -0.72800
O1160       O  0.59872088  0.55128181  0.07060959    -0.71600
Cu1161     Cu  0.57828646  0.51900163  0.10138535     1.04600
Cu1162     Cu  0.57699259  0.52843795  0.06448674     1.04300
C1163       C  0.60663827  0.55387734  0.08932178     0.94700
C1164       C  0.54918209  0.49307145  0.07654961     0.93900
C1165       C  0.60879829  0.49607362  0.07514564     0.86000
C1166       C  0.54622671  0.55134095  0.09039049     0.92300
O1167       O  0.11448205  0.58230871  0.45681219    -0.71500
O1168       O  0.11308239  0.53692057  0.50223775    -0.72500
O1169       O  0.12268946  0.53767905  0.45746044    -0.61100
O1170       O  0.10479560  0.58112746  0.50112430    -0.69500
O1171       O  0.07066577  0.57605998  0.49188777    -0.69000
O1172       O  0.08840858  0.52977402  0.45124567    -0.60300
O1173       O  0.07848688  0.53098191  0.49561449    -0.72800
O1174       O  0.08087482  0.57461130  0.44754822    -0.71600
Cu1175     Cu  0.11495317  0.55968714  0.47964506     1.04600
Cu1176     Cu  0.07837231  0.55260828  0.47132245     1.04300
C1177       C  0.09803822  0.58561637  0.44494948     0.94700
C1178       C  0.09558074  0.52706648  0.50640200     0.93900
C1179       C  0.10838777  0.52674625  0.44764463     0.86000
C1180       C  0.08487794  0.58564492  0.50309564     0.92300
O1181       O  0.51896536  0.06726342  0.48012743    -0.71500
O1182       O  0.56477347  0.07024841  0.43470344    -0.72500
O1183       O  0.56437518  0.07313858  0.48005730    -0.61100
O1184       O  0.51983526  0.06435325  0.43409938    -0.69500
O1185       O  0.51546265  0.09946058  0.43111788    -0.69000
O1186       O  0.55814259  0.10810557  0.47903799    -0.60300
O1187       O  0.56111855  0.10557391  0.43356904    -0.72800
O1188       O  0.51309254  0.10211828  0.47657826    -0.71600
Cu1189     Cu  0.54207657  0.06753043  0.45733162     1.04600
Cu1190     Cu  0.53677843  0.10505060  0.45493509     1.04300
C1191       C  0.50889675  0.08420152  0.48560524     0.94700
C1192       C  0.57039107  0.08848709  0.42726885     0.93900
C1193       C  0.56808064  0.09201872  0.48694027     0.86000
C1194       C  0.51092096  0.08043988  0.42509741     0.92300
O1195       O  0.00832515  0.55205095  0.44666189    -0.71500
O1196       O  0.02261662  0.50582548  0.48931537    -0.72500
O1197       O  0.00415933  0.50714232  0.44787623    -0.61100
O1198       O  0.02690897  0.55168017  0.48792635    -0.69500
O1199       O  0.99458962  0.55455582  0.50275916    -0.69000
O1200       O  0.97174298  0.51008238  0.46246396    -0.60300
O1201       O  0.99027451  0.50961187  0.50386598    -0.72800
O1202       O  0.97604996  0.55568755  0.46140622    -0.71600
Cu1203     Cu  0.01667436  0.52904470  0.46749866     1.04600
Cu1204     Cu  0.98203160  0.53258998  0.48312498     1.04300
C1205       C  0.99003507  0.56125430  0.44744969     0.94700
C1206       C  0.00851577  0.50027610  0.50314911     0.93900
C1207       C  0.98440523  0.50158970  0.44883997     0.86000
C1208       C  0.01424005  0.56038131  0.50139775     0.92300
O1209       O  0.53993567  0.98850010  0.44050588    -0.71500
O1210       O  0.58988386  0.97123123  0.47809574    -0.72500
O1211       O  0.54375485  0.97087465  0.48238688    -0.61100
O1212       O  0.58521139  0.98873701  0.43631962    -0.69500
O1213       O  0.58667188  0.02141832  0.45005222    -0.69000
O1214       O  0.54532247  0.00348361  0.49628975    -0.60300
O1215       O  0.59055418  0.00390679  0.49189209    -0.72800
O1216       O  0.54058978  0.02106112  0.45455120    -0.71600
Cu1217     Cu  0.56464538  0.97867303  0.45888073     1.04600
Cu1218     Cu  0.56581319  0.01362196  0.47362409     1.04300
C1219       C  0.53236134  0.00746368  0.44168039     0.94700
C1220       C  0.59818510  0.98499568  0.49079921     0.93900
C1221       C  0.53789545  0.98443519  0.49650524     0.86000
C1222       C  0.59263219  0.00780884  0.43604794     0.92300
O1223       O  0.54934205  0.55262443  0.85838828    -0.71500
O1224       O  0.59447999  0.50769594  0.86921967    -0.72500
O1225       O  0.54918371  0.50762868  0.86688445    -0.61100
O1226       O  0.59555972  0.55233490  0.86073108    -0.69500
O1227       O  0.59332251  0.55939663  0.89549547    -0.69000
O1228       O  0.54708074  0.51439168  0.90169885    -0.60300
O1229       O  0.59325895  0.51459966  0.90405833    -0.72800
O1230       O  0.54802784  0.55938052  0.89325579    -0.71600
Cu1231     Cu  0.57217004  0.52989340  0.86258051     1.04600
Cu1232     Cu  0.57033770  0.53713167  0.89985056     1.04300
C1233       C  0.54162552  0.56312230  0.87416507     0.94700
C1234       C  0.60100983  0.50411899  0.88832808     0.93900
C1235       C  0.54101626  0.50376897  0.88528322     0.86000
C1236       C  0.60179376  0.56281884  0.87717193     0.92300
O1237       O  0.07367801  0.02779264  0.44222192    -0.71500
O1238       O  0.02894693  0.07422495  0.44271852    -0.72500
O1239       O  0.02839587  0.02959314  0.45044682    -0.61100
O1240       O  0.07370855  0.07265529  0.43443985    -0.69500
O1241       O  0.06709060  0.06621895  0.40008163    -0.69000
O1242       O  0.02229154  0.02287052  0.41607706    -0.60300
O1243       O  0.02178539  0.06759928  0.40851129    -0.72800
O1244       O  0.06662289  0.02154638  0.40790970    -0.71600
Cu1245     Cu  0.05142653  0.05125737  0.44368126     1.04600
Cu1246     Cu  0.04421863  0.04444123  0.40693490     1.04300
C1247       C  0.07717439  0.01738462  0.42497117     0.94700
C1248       C  0.01807983  0.07795375  0.42574639     0.93900
C1249       C  0.01835435  0.01938104  0.43585015     0.86000
C1250       C  0.07759448  0.07608627  0.41461935     0.92300
O1251       O  0.03492358  0.01639016  0.49211588    -0.71500
O1252       O  0.07812059  0.06273475  0.50299812    -0.72500
O1253       O  0.07924357  0.01782037  0.50113174    -0.61100
O1254       O  0.03339872  0.06228249  0.49370150    -0.69500
O1255       O  0.02566776  0.06018951  0.52838377    -0.69000
O1256       O  0.07141331  0.01543899  0.53577720    -0.60300
O1257       O  0.07040096  0.06127287  0.53772174    -0.72800
O1258       O  0.02674196  0.01515868  0.52671202    -0.71600
Cu1259     Cu  0.05660475  0.03991489  0.49626948     1.04600
Cu1260     Cu  0.04834048  0.03799732  0.53340087     1.04300
C1261       C  0.02429258  0.00828231  0.50765423     0.94700
C1262       C  0.08113693  0.06921371  0.52211942     0.93900
C1263       C  0.08236724  0.00944627  0.51956383     0.86000
C1264       C  0.02230080  0.06821494  0.50981660     0.92300
O1265       O  0.49530408  0.03797016  0.98135162    -0.71500
O1266       O  0.49013914  0.99280171  0.93592290    -0.72500
O1267       O  0.49314494  0.03825662  0.93566155    -0.61100
O1268       O  0.49246670  0.99261425  0.98137292    -0.69500
O1269       O  0.45726635  0.99698551  0.98532878    -0.69000
O1270       O  0.45743579  0.03810351  0.93546023    -0.60300
O1271       O  0.45467538  0.99293832  0.94010607    -0.72800
O1272       O  0.45985757  0.04223907  0.98088764    -0.71600
Cu1273     Cu  0.49402864  0.01536254  0.95850916     1.04600
Cu1274     Cu  0.45604953  0.01767654  0.96048802     1.04300
C1275       C  0.47840777  0.04739821  0.98806812     0.94700
C1276       C  0.47153307  0.98539831  0.93128371     0.93900
C1277       C  0.47529602  0.04492154  0.92795090     0.86000
C1278       C  0.47488538  0.98797373  0.99088075     0.92300
O1279       O  0.06202653  0.41641958  0.94697057    -0.71500
O1280       O  0.10520341  0.41880245  0.99468501    -0.72500
O1281       O  0.05980755  0.41140192  0.99189470    -0.61100
O1282       O  0.10653654  0.42354988  0.94954541    -0.69500
O1283       O  0.10130561  0.45849816  0.95318611    -0.69000
O1284       O  0.05449009  0.44630177  0.99586706    -0.60300
O1285       O  0.09920396  0.45361253  0.99841544    -0.72800
O1286       O  0.05583709  0.45119334  0.95080732    -0.71600
Cu1287     Cu  0.08362963  0.41633020  0.97072698     1.04600
Cu1288     Cu  0.07752655  0.45364429  0.97467992     1.04300
C1289       C  0.05203995  0.43340344  0.94148925     0.94700
C1290       C  0.10903700  0.43655404  0.00402513     0.93900
C1291       C  0.04964425  0.42692796  0.00038623     0.86000
C1292       C  0.11111531  0.44283739  0.94447949     0.92300
O1293       O  0.64778814  0.98636205  0.97279082    -0.71500
O1294       O  0.63222671  0.02874268  0.92677923    -0.72500
O1295       O  0.64658570  0.98544261  0.92735402    -0.61100
O1296       O  0.63340861  0.02877003  0.97251481    -0.69500
O1297       O  0.66749015  0.03948157  0.97225091    -0.69000
O1298       O  0.68005236  0.99763042  0.92480433    -0.60300
O1299       O  0.66579947  0.04093125  0.92702044    -0.72800
O1300       O  0.68204394  0.99630043  0.97037369    -0.71600
Cu1301     Cu  0.63882744  0.00693887  0.94979588     1.04600
Cu1302     Cu  0.67506153  0.01897024  0.94852006     1.04300
C1303       C  0.66734063  0.98482533  0.97889989     0.94700
C1304       C  0.64647792  0.04192952  0.92011561     0.93900
C1305       C  0.66525570  0.98465607  0.91892894     0.86000
C1306       C  0.64842335  0.04058880  0.97986798     0.92300
O1307       O  0.04799755  0.57884405  0.00608566    -0.71500
O1308       O  0.09669095  0.57801718  0.96379248    -0.72500
O1309       O  0.09342500  0.57783463  0.00955800    -0.61100
O1310       O  0.05079672  0.57921439  0.96073087    -0.69500
O1311       O  0.05147172  0.61472409  0.96128937    -0.69000
O1312       O  0.09602988  0.61325144  0.00832252    -0.60300
O1313       O  0.09673013  0.61353363  0.96274913    -0.72800
O1314       O  0.05033933  0.61427257  0.00743754    -0.71600
Cu1315     Cu  0.07223465  0.57723150  0.98501441     1.04600
Cu1316     Cu  0.07364493  0.61518775  0.98497230     1.04300
C1317       C  0.04189717  0.59668467  0.01382270     0.94700
C1318       C  0.10398469  0.59560663  0.95620515     0.93900
C1319       C  0.10141620  0.59529702  0.01660909     0.86000
C1320       C  0.04446284  0.59722944  0.95330630     0.92300
C1321       C  0.51859483  0.47631311  0.05801794    -0.15000
C1322       C  0.53387015  0.47545169  0.07316843    -0.30100
H1323       H  0.51664662  0.49068134  0.04834709     0.14100
H1324       H  0.53440156  0.46194425  0.08418713     0.14600
C1325       C  0.10346657  0.49327011  0.42760550    -0.15000
C1326       C  0.11511023  0.51090679  0.43162035    -0.30100
H1327       H  0.08939140  0.48958642  0.43724736     0.14100
H1328       H  0.13023302  0.51351987  0.42329635     0.14600
C1329       C  0.47946984  0.09038586  0.40308110    -0.15000
C1330       C  0.49558314  0.07675657  0.40736358    -0.30100
H1331       H  0.47694079  0.10411503  0.41339080     0.14100
H1332       H  0.49696239  0.06203667  0.39826705     0.14600
C1333       C  0.09468392  0.09112357  0.40819870    -0.15000
C1334       C  0.10105519  0.10734624  0.42071704    -0.30100
H1335       H  0.10172640  0.08923281  0.39239207     0.14100
H1336       H  0.09279896  0.11049660  0.43570793     0.14600
C1337       C  0.26100221  0.13897947  0.35387693    -0.17000
C1338       C  0.27890524  0.13277500  0.34976786     0.07000
C1339       C  0.29998857  0.12564003  0.34519160     0.08900
C1340       C  0.31805485  0.11962246  0.34152089    -0.17900
C1341       C  0.13309165  0.32864185  0.37423340    -0.17000
C1342       C  0.13667128  0.30994713  0.37732825     0.07000
C1343       C  0.14215500  0.28826745  0.38042883     0.08900
C1344       C  0.14750684  0.26989777  0.38284481    -0.17900
C1345       C  0.48045790  0.06376484  0.00486953    -0.15000
C1346       C  0.46667295  0.08018616  0.00660810    -0.30100
H1347       H  0.49387860  0.06242800  0.01597523     0.14100
H1348       H  0.45437726  0.08273404  0.99447404     0.14600
C1349       C  0.47187646  0.30519558  0.06200080    -0.17000
C1350       C  0.47353877  0.28607778  0.06424474     0.07000
C1351       C  0.47367672  0.26359081  0.06688443     0.08900
C1352       C  0.47288133  0.24443670  0.06934676    -0.17900
C1353       C  0.47100593  0.10691953  0.17827504    -0.17000
C1354       C  0.46623275  0.10001223  0.19571776     0.07000
C1355       C  0.45907916  0.09285151  0.21601037     0.08900
C1356       C  0.45182876  0.08788474  0.23325595    -0.17900
C1357       C  0.12476011  0.45214022  0.03661374    -0.15000
C1358       C  0.12529842  0.43730224  0.02114494    -0.30100
H1359       H  0.11141477  0.46331089  0.03748395     0.14100
H1360       H  0.13765998  0.42502862  0.02137152     0.14600
C1361       C  0.15861006  0.46004444  0.26366814    -0.17000
C1362       C  0.16310331  0.46402069  0.24529138     0.07000
C1363       C  0.16839525  0.46695488  0.22348186     0.08900
C1364       C  0.17297936  0.46828390  0.20475893    -0.17900
C1365       C  0.29396876  0.44161074  0.08185555    -0.17000
C1366       C  0.31219688  0.43771084  0.07666399     0.07000
C1367       C  0.33342933  0.43282018  0.07046365     0.08900
C1368       C  0.35153415  0.42841202  0.06525774    -0.17900
C1369       C  0.98581928  0.48106808  0.41551972    -0.15000
C1370       C  0.97625936  0.48490784  0.43436761    -0.30100
H1371       H  0.99885953  0.49131982  0.41004924     0.14100
H1372       H  0.96216337  0.47577723  0.43915940     0.14600
C1373       C  0.59215925  0.07419972  0.39770396    -0.15000
C1374       C  0.58805045  0.08998594  0.41162018    -0.30100
H1375       H  0.58156283  0.06038224  0.39685387     0.14100
H1376       H  0.59746912  0.10464275  0.41105533     0.14600
C1377       C  0.62725817  0.46181844  0.08098900    -0.15000
C1378       C  0.62589663  0.48048295  0.07037912    -0.30100
H1379       H  0.61534824  0.45786622  0.09311473     0.14100
H1380       H  0.63643682  0.48359806  0.05684479     0.14600
C1381       C  0.65472163  0.07299088  0.00139258    -0.15000
C1382       C  0.64354372  0.05500584  0.99781268    -0.30100
H1383       H  0.66707007  0.07805078  0.99014447     0.14100
H1384       H  0.63003238  0.05093881  0.00809230     0.14600
C1385       C  0.63962432  0.09339148  0.17490540    -0.17000
C1386       C  0.64278258  0.08729875  0.19303292     0.07000
C1387       C  0.64697783  0.08128124  0.21453032     0.08900
C1388       C  0.65083597  0.07710340  0.23305661    -0.17900
C1389       C  0.65430109  0.23225823  0.07287957    -0.17000
C1390       C  0.65788090  0.25115098  0.07175527     0.07000
C1391       C  0.66252160  0.27317806  0.07060423     0.08900
C1392       C  0.66695934  0.29189100  0.06948824    -0.17900
C1393       C  0.00101293  0.09427505  0.42632416    -0.15000
C1394       C  0.98415660  0.09362456  0.41286597    -0.30100
H1395       H  0.00166771  0.10626198  0.43886053     0.14100
H1396       H  0.98275228  0.08063249  0.40142982     0.14600
C1397       C  0.94267829  0.31306909  0.39731286    -0.17000
C1398       C  0.93852294  0.29599719  0.40541155     0.07000
C1399       C  0.93352492  0.27562825  0.41398184     0.08900
C1400       C  0.92899752  0.25776901  0.41984650    -0.17900
C1401       C  0.76096036  0.11175085  0.36218490    -0.17000
C1402       C  0.77815901  0.11876125  0.36780474     0.07000
C1403       C  0.79840821  0.12665459  0.37448043     0.08900
C1404       C  0.81584899  0.13289626  0.38026301    -0.17900
C1405       C  0.02709765  0.43570432  0.03121417    -0.15000
C1406       C  0.03183057  0.42237588  0.01516986    -0.30100
H1407       H  0.03737333  0.44940403  0.03443547     0.14100
H1408       H  0.02281439  0.40759634  0.01322876     0.14600
C1409       C  0.97561267  0.41264268  0.25526320    -0.17000
C1410       C  0.97434463  0.41552748  0.23617297     0.07000
C1411       C  0.97176120  0.41863049  0.21386940     0.08900
C1412       C  0.96869611  0.42070933  0.19487985    -0.17900
C1413       C  0.85429900  0.41031163  0.06327597    -0.17000
C1414       C  0.83536072  0.40989625  0.05901589     0.07000
C1415       C  0.81292693  0.40911902  0.05532963     0.08900
C1416       C  0.79369029  0.40766509  0.05313695    -0.17900
C1417       C  0.61073644  0.00343393  0.40135411    -0.15000
C1418       C  0.60897445  0.01386461  0.42002562    -0.30100
H1419       H  0.59860800  0.99175979  0.39679056     0.14100
H1420       H  0.62019052  0.02662830  0.42392201     0.14600
C1421       C  0.97039375  0.59349211  0.43564245    -0.15000
C1422       C  0.98534524  0.57846225  0.43199916    -0.30100
H1423       H  0.96141292  0.59340375  0.45058095     0.14100
H1424       H  0.99542753  0.57949015  0.41781912     0.14600
C1425       C  0.62514005  0.58748039  0.08036760    -0.15000
C1426       C  0.62366335  0.56989178  0.09267936    -0.30100
H1427       H  0.61254000  0.59118229  0.06883781     0.14100
H1428       H  0.63530736  0.56710707  0.10540497     0.14600
C1429       C  0.02510170  0.59674327  0.03043939    -0.15000
C1430       C  0.02554677  0.61081597  0.04660605    -0.30100
H1431       H  0.01316287  0.58402093  0.03031474     0.14100
H1432       H  0.03870405  0.62224079  0.04772406     0.14600
C1433       C  0.98353038  0.65773804  0.27369040    -0.17000
C1434       C  0.98503708  0.65354878  0.25491403     0.07000
C1435       C  0.98494590  0.64782465  0.23305324     0.08900
C1436       C  0.98290174  0.64230536  0.21467563    -0.17900
C1437       C  0.79950121  0.61373561  0.09168092    -0.17000
C1438       C  0.81794344  0.60867963  0.09487449     0.07000
C1439       C  0.83984563  0.60424157  0.09892934     0.08900
C1440       C  0.85871097  0.60163677  0.10260417    -0.17900
C1441       C  0.99942527  0.98543143  0.43086376    -0.15000
C1442       C  0.00185168  0.00363703  0.44187728    -0.30100
H1443       H  0.01070652  0.98139136  0.41823297     0.14100
H1444       H  0.99191004  0.00674915  0.45582192     0.14600
C1445       C  0.77900685  0.97668945  0.39306737    -0.17000
C1446       C  0.79485510  0.97119328  0.40279233     0.07000
C1447       C  0.81363865  0.96423390  0.41348767     0.08900
C1448       C  0.82998054  0.95777626  0.42167848    -0.17900
C1449       C  0.93678536  0.82189108  0.42526929    -0.17000
C1450       C  0.93902437  0.80344737  0.42013603     0.07000
C1451       C  0.94129595  0.78206630  0.41325081     0.08900
C1452       C  0.94312431  0.76401188  0.40676019    -0.17900
C1453       C  0.66208642  0.97094453  0.01497006    -0.15000
C1454       C  0.67288426  0.97013175  0.99642369    -0.30100
H1455       H  0.64959303  0.98288635  0.01716825     0.14100
H1456       H  0.68688814  0.95989083  0.99481259     0.14600
C1457       C  0.68378012  0.96865952  0.24595361    -0.17000
C1458       C  0.68281389  0.96274199  0.22759380     0.07000
C1459       C  0.68227160  0.95521811  0.20626336     0.08900
C1460       C  0.68208871  0.94840003  0.18820083    -0.17900
C1461       C  0.68978311  0.81113905  0.08063441    -0.17000
C1462       C  0.69042430  0.79194030  0.07881763     0.07000
C1463       C  0.69147561  0.76940105  0.07741917     0.08900
C1464       C  0.69284327  0.75016151  0.07675028    -0.17900
C1465       C  0.11302301  0.61856676  0.42933218    -0.15000
C1466       C  0.09897099  0.60224622  0.42806292    -0.30100
H1467       H  0.12314609  0.62012440  0.44346762     0.14100
H1468       H  0.08768628  0.60138656  0.41477340     0.14600
C1469       C  0.51108861  0.00540966  0.40860923    -0.15000
C1470       C  0.51377331  0.01364272  0.42824413    -0.30100
H1471       H  0.52332361  0.99484516  0.40216064     0.14100
H1472       H  0.50251189  0.02541806  0.43427749     0.14600
C1473       C  0.52851746  0.56657929  0.09452339    -0.15000
C1474       C  0.52502994  0.58354233  0.08163970    -0.30100
H1475       H  0.51870659  0.56430096  0.10874355     0.14100
H1476       H  0.53604014  0.58679818  0.06851302     0.14600
C1477       C  0.47521926  0.97205036  0.00839314    -0.15000
C1478       C  0.46110673  0.97266707  0.02462590    -0.30100
H1479       H  0.48829506  0.96052904  0.00875310     0.14100
H1480       H  0.44921729  0.98538524  0.02523713     0.14600
C1481       C  0.44285926  0.97252886  0.25357386    -0.17000
C1482       C  0.44535256  0.96505111  0.23596731     0.07000
C1483       C  0.44842675  0.95633514  0.21534568     0.08900
C1484       C  0.45118361  0.94892625  0.19774877    -0.17900
C1485       C  0.47389635  0.75122297  0.08960909    -0.17000
C1486       C  0.47671245  0.77032566  0.09021907     0.07000
C1487       C  0.47882262  0.79280677  0.09171539     0.08900
C1488       C  0.47981019  0.81199677  0.09360678    -0.17900
C1489       C  0.09354892  0.00041375  0.42431874    -0.15000
C1490       C  0.11115409  0.00088133  0.43675667    -0.30100
H1491       H  0.09211822  0.98837159  0.41189181     0.14100
H1492       H  0.11364455  0.01407138  0.44776779     0.14600
C1493       C  0.33687697  0.00001024  0.38649650    -0.17000
C1494       C  0.31919020  0.99435809  0.39222589     0.07000
C1495       C  0.29849205  0.98654406  0.39766138     0.08900
C1496       C  0.28096122  0.97913747  0.40160043    -0.17900
C1497       C  0.15926949  0.78211627  0.38452065    -0.17000
C1498       C  0.16343476  0.80044897  0.38896025     0.07000
C1499       C  0.16806858  0.82212272  0.39357628     0.08900
C1500       C  0.17177010  0.84074774  0.39712853    -0.17900
C1501       C  0.13312007  0.60800294  0.03686415    -0.15000
C1502       C  0.11629062  0.59462443  0.03506611    -0.30100
H1503       H  0.13712935  0.61877279  0.02374655     0.14100
H1504       H  0.11357779  0.58251552  0.04732324     0.14600
C1505       C  0.29343398  0.61877043  0.11322988    -0.17000
C1506       C  0.31279706  0.62050095  0.11257963     0.07000
C1507       C  0.33542650  0.62325014  0.11190081     0.08900
C1508       C  0.35458899  0.62648407  0.11108806    -0.17900
C1509       C  0.14858599  0.63953989  0.20759905    -0.17000
C1510       C  0.14153848  0.64691299  0.22399660     0.07000
C1511       C  0.13446504  0.65552751  0.24368653     0.08900
C1512       C  0.12960596  0.66249329  0.26102655    -0.17900
C1513       C  0.61665243  0.97938697  0.50461835    -0.15000
C1514       C  0.63133090  0.96460879  0.49919957    -0.30100
H1515       H  0.61900824  0.98879625  0.51902931     0.14100
H1516       H  0.63000577  0.95642463  0.48392693     0.14600
C1517       C  0.63641683  0.57611483  0.86324849    -0.15000
C1518       C  0.61874978  0.57923883  0.87517776    -0.30100
H1519       H  0.63873830  0.56088924  0.85524552     0.14100
H1520       H  0.61739561  0.59356249  0.88487665     0.14600
C1521       C  0.01427653  0.58149848  0.53442569    -0.15000
C1522       C  0.02213192  0.57800768  0.51478478    -0.30100
H1523       H  0.00317103  0.57009675  0.54158697     0.14100
H1524       H  0.03430859  0.58858282  0.50821356     0.14600
C1525       C  0.03080256  0.61225576  0.91941692    -0.15000
C1526       C  0.02903329  0.59771406  0.93524542    -0.30100
H1527       H  0.04414752  0.62351668  0.91961847     0.14100
H1528       H  0.01709023  0.58505720  0.93409349     0.14600
C1529       C  0.86916610  0.61158090  0.84364847    -0.17000
C1530       C  0.84976599  0.61305233  0.84366856     0.07000
C1531       C  0.82711743  0.61570966  0.84298339     0.08900
C1532       C  0.80793076  0.61881734  0.84219871    -0.17900
C1533       C  0.01087551  0.64593262  0.74810503    -0.17000
C1534       C  0.01745784  0.65024398  0.73041456     0.07000
C1535       C  0.02382610  0.65449342  0.70906749     0.08900
C1536       C  0.02796972  0.65719009  0.69036128    -0.17900
C1537       C  0.68516160  0.97008406  0.88795926    -0.15000
C1538       C  0.66942981  0.96824494  0.90255517    -0.30100
H1539       H  0.69509515  0.98439862  0.88749399     0.14100
H1540       H  0.65843588  0.95473000  0.90180624     0.14600
C1541       C  0.70570534  0.94951437  0.65808551    -0.17000
C1542       C  0.70428363  0.94631451  0.67711330     0.07000
C1543       C  0.70315736  0.94122123  0.69917657     0.08900
C1544       C  0.70242871  0.93581600  0.71774867    -0.17900
C1545       C  0.68767019  0.74309718  0.83929698    -0.17000
C1546       C  0.68530036  0.76217126  0.83741038     0.07000
C1547       C  0.68375884  0.78455947  0.83449261     0.08900
C1548       C  0.68326068  0.80362219  0.83138259    -0.17900
C1549       C  0.00942848  0.99044346  0.50378325    -0.15000
C1550       C  0.01525195  0.97395366  0.49141903    -0.30100
H1551       H  0.99462051  0.98966896  0.51297284     0.14100
H1552       H  0.03113153  0.97373619  0.48416960     0.14600
C1553       C  0.00275753  0.80463025  0.52148828    -0.17000
C1554       C  0.01123013  0.78886156  0.52878965     0.07000
C1555       C  0.02051733  0.77021853  0.53765794     0.08900
C1556       C  0.02738807  0.75393302  0.54547884    -0.17900
C1557       C  0.85714149  0.89925399  0.49897467    -0.17000
C1558       C  0.83865936  0.90276762  0.50362528     0.07000
C1559       C  0.81761553  0.90807108  0.51025937     0.08900
C1560       C  0.80022311  0.91342747  0.51687760    -0.17900
C1561       C  0.50698963  0.96362295  0.50994565    -0.15000
C1562       C  0.52230384  0.97841825  0.51324947    -0.30100
H1563       H  0.50583086  0.95572953  0.49450619     0.14100
H1564       H  0.52224721  0.98769517  0.52793066     0.14600
C1565       C  0.08542926  0.60208285  0.53849411    -0.15000
C1566       C  0.07832360  0.60232567  0.51822295    -0.30100
H1567       H  0.09486312  0.58859590  0.54425918     0.14100
H1568       H  0.06740692  0.61475994  0.51274764     0.14600
C1569       C  0.51056148  0.57845920  0.85489307    -0.15000
C1570       C  0.52514410  0.57977283  0.87070158    -0.30100
H1571       H  0.51068813  0.56474989  0.84424824     0.14100
H1572       H  0.52370577  0.59232108  0.88260921     0.14600
C1573       C  0.12158920  0.61079337  0.92455567    -0.15000
C1574       C  0.12048737  0.59512313  0.93928475    -0.30100
H1575       H  0.11020550  0.62396673  0.92514452     0.14100
H1576       H  0.13041946  0.58093052  0.93768751     0.14600
C1577       C  0.33693866  0.59766977  0.84533387    -0.17000
C1578       C  0.31852114  0.59158710  0.84532726     0.07000
C1579       C  0.29628972  0.58690183  0.84508508     0.08900
C1580       C  0.27698367  0.58506273  0.84452894    -0.17900
C1581       C  0.13772821  0.63757391  0.75324380    -0.17000
C1582       C  0.13012509  0.64339218  0.73639210     0.07000
C1583       C  0.12160587  0.64998806  0.71640364     0.08900
C1584       C  0.11472006  0.65527313  0.69907811    -0.17900
C1585       C  0.09821531  0.99215796  0.52203148    -0.15000
C1586       C  0.11465125  0.98982270  0.50831599    -0.30100
H1587       H  0.09631591  0.98106089  0.53535433     0.14100
H1588       H  0.11768201  0.00183148  0.49603597     0.14600
C1589       C  0.27734424  0.93012597  0.52737035    -0.17000
C1590       C  0.29593303  0.93386964  0.53141937     0.07000
C1591       C  0.31757622  0.93773404  0.53709228     0.08900
C1592       C  0.33592368  0.94056938  0.54268495    -0.17900
C1593       C  0.14033135  0.82120063  0.54673185    -0.17000
C1594       C  0.13241007  0.80451517  0.55257637     0.07000
C1595       C  0.12300554  0.78516783  0.55984461     0.08900
C1596       C  0.11527889  0.76869837  0.56651398    -0.17900
C1597       C  0.46925145  0.96786251  0.91578484    -0.15000
C1598       C  0.48304999  0.96533732  0.89949613    -0.30100
H1599       H  0.45518943  0.95758473  0.91702627     0.14100
H1600       H  0.49595218  0.97682925  0.89702979     0.14600
C1601       C  0.44350099  0.80038394  0.85241303    -0.17000
C1602       C  0.44183723  0.78137409  0.85535417     0.07000
C1603       C  0.43996638  0.75893565  0.85737425     0.08900
C1604       C  0.43829415  0.73972133  0.85805702    -0.17900
C1605       C  0.45913375  0.92767945  0.73254389    -0.17000
C1606       C  0.45619214  0.93441518  0.71463031     0.07000
C1607       C  0.45239034  0.94186441  0.69354666     0.08900
C1608       C  0.44890970  0.94744688  0.67533862    -0.17900
C1609       C  0.08110284  0.49540965  0.52566004    -0.15000
C1610       C  0.09555425  0.51132241  0.52409594    -0.30100
H1611       H  0.06892429  0.49342926  0.51330855     0.14100
H1612       H  0.10873831  0.51211352  0.53552952     0.14600
C1613       C  0.47796855  0.09841680  0.50577403    -0.15000
C1614       C  0.49284022  0.08308970  0.50303834    -0.30100
H1615       H  0.47656734  0.11128153  0.49408479     0.14100
H1616       H  0.49326586  0.06941829  0.51384729     0.14600
C1617       C  0.52446322  0.48685944  0.88758973    -0.15000
C1618       C  0.52474335  0.46933813  0.87515926    -0.30100
H1619       H  0.51255083  0.48830626  0.90021519     0.14100
H1620       H  0.53787286  0.46713692  0.86390792     0.14600
C1621       C  0.49048540  0.07496744  0.90691841    -0.15000
C1622       C  0.47502637  0.06020331  0.90986450    -0.30100
H1623       H  0.50329054  0.07668493  0.91865891     0.14100
H1624       H  0.46121668  0.05990087  0.89916937     0.14600
C1625       C  0.49280186  0.23966834  0.84416494    -0.17000
C1626       C  0.49054106  0.25869410  0.84678324     0.07000
C1627       C  0.48686241  0.28090397  0.84950927     0.08900
C1628       C  0.48284753  0.29969311  0.85172264    -0.17900
C1629       C  0.44526855  0.09381101  0.67847230    -0.17000
C1630       C  0.45125590  0.09687695  0.69663229     0.07000
C1631       C  0.45748891  0.10182627  0.71788058     0.08900
C1632       C  0.46231995  0.10704568  0.73587755    -0.17900
C1633       C  0.09740175  0.08585974  0.52597443    -0.15000
C1634       C  0.09503407  0.10055067  0.54135189    -0.30100
H1635       H  0.11093978  0.08692469  0.51501339     0.14100
H1636       H  0.08045883  0.10080244  0.55094953     0.14600
C1637       C  0.12535405  0.27064750  0.55364188    -0.17000
C1638       C  0.11811113  0.28850440  0.55451457     0.07000
C1639       C  0.11008511  0.30943682  0.55720800     0.08900
C1640       C  0.10420277  0.32729097  0.56144090    -0.17900
C1641       C  0.26109849  0.15814257  0.55835294    -0.17000
C1642       C  0.27974044  0.15362004  0.56137259     0.07000
C1643       C  0.30134461  0.14750163  0.56505294     0.08900
C1644       C  0.31956230  0.14159561  0.56823431    -0.17900
C1645       C  0.12762201  0.44689527  0.92809468    -0.15000
C1646       C  0.12921705  0.43386810  0.91117179    -0.30100
H1647       H  0.13760076  0.46113763  0.92918844     0.14100
H1648       H  0.11766350  0.42095580  0.90913885     0.14600
C1649       C  0.35573356  0.41801360  0.86762459    -0.17000
C1650       C  0.33680959  0.42164177  0.86507953     0.07000
C1651       C  0.31469346  0.42550155  0.86118714     0.08900
C1652       C  0.29591153  0.42868278  0.85731903    -0.17900
C1653       C  0.13754423  0.44037207  0.68512194    -0.17000
C1654       C  0.14569843  0.44133353  0.70264491     0.07000
C1655       C  0.15514467  0.44090002  0.72325276     0.08900
C1656       C  0.16284292  0.43977567  0.74097813    -0.17900
C1657       C  0.60160756  0.08376020  0.50638021    -0.15000
C1658       C  0.58356317  0.09539420  0.50451401    -0.30100
H1659       H  0.60574879  0.07224585  0.49406808     0.14100
H1660       H  0.58050750  0.10832667  0.51567542     0.14600
C1661       C  0.00292828  0.48096501  0.53689464    -0.15000
C1662       C  0.01285912  0.48233410  0.51788401    -0.30100
H1663       H  0.99337778  0.49431214  0.54265053     0.14100
H1664       H  0.02380087  0.46978580  0.51282777     0.14600
C1665       C  0.62058701  0.47141674  0.87885662    -0.15000
C1666       C  0.61786081  0.48794264  0.89223914    -0.30100
H1667       H  0.60945025  0.46915369  0.86560982     0.14100
H1668       H  0.62778343  0.48930186  0.90652102     0.14600
C1669       C  0.01887717  0.44495981  0.92320257    -0.15000
C1670       C  0.03617845  0.43217496  0.92407250    -0.30100
H1671       H  0.01581446  0.45631320  0.93596843     0.14100
H1672       H  0.03810562  0.41951334  0.91235968     0.14600
C1673       C  0.99310641  0.40846759  0.69642785    -0.17000
C1674       C  0.99087910  0.40950996  0.71554587     0.07000
C1675       C  0.98651414  0.41047162  0.73765855     0.08900
C1676       C  0.98143346  0.41144125  0.75622896    -0.17900
C1677       C  0.85102321  0.43293797  0.87189552    -0.17000
C1678       C  0.83219031  0.43296083  0.87649605     0.07000
C1679       C  0.81011314  0.43184655  0.88169853     0.08900
C1680       C  0.79129551  0.42916030  0.88553441    -0.17900
C1681       C  0.98765469  0.08441775  0.51881977    -0.15000
C1682       C  0.00564163  0.08470145  0.50699046    -0.30100
H1683       H  0.98461734  0.07113998  0.52970805     0.14100
H1684       H  0.00790042  0.09689048  0.49473174     0.14600
C1685       C  0.97493554  0.30791571  0.55675197    -0.17000
C1686       C  0.96927603  0.29031844  0.55114179     0.07000
C1687       C  0.96168239  0.26967496  0.54574764     0.08900
C1688       C  0.95466279  0.25209658  0.54181528    -0.17900
C1689       C  0.82314042  0.13412882  0.55105467    -0.17000
C1690       C  0.80473981  0.12872690  0.55403961     0.07000
C1691       C  0.78333107  0.12200989  0.55771600     0.08900
C1692       C  0.76514674  0.11623987  0.56127109    -0.17900
C1693       C  0.64053179  0.05853611  0.90438388    -0.15000
C1694       C  0.65060863  0.07755707  0.90410843    -0.30100
H1695       H  0.62721455  0.05546870  0.89354293     0.14100
H1696       H  0.66271969  0.08110305  0.91615907     0.14600
C1697       C  0.67198909  0.30517646  0.86454608    -0.17000
C1698       C  0.66823309  0.28649292  0.86159106     0.07000
C1699       C  0.66436122  0.26455468  0.85788967     0.08900
C1700       C  0.66129349  0.24584660  0.85437155    -0.17900
C1701       C  0.62712601  0.12238429  0.73705469    -0.17000
C1702       C  0.62861905  0.11800142  0.71830908     0.07000
C1703       C  0.63196960  0.11371003  0.69634892     0.08900
C1704       C  0.63619863  0.11053719  0.67777050    -0.17900
loop_ 
_geom_bond_atom_site_label_1 
_geom_bond_atom_site_label_2 
_geom_bond_distance 
_geom_bond_site_symmetry_2 
_ccdc_geom_bond_type 
N1            N2   1.323       .  A
N1            C5   1.344       .  A
N1           Cu9   2.070       .  S
N2            C3   1.347       .  A
N2           Cu8   2.078       .  S
C3            C4   1.382       .  A
C3            H6   1.082       .  S
C4            C5   1.378       .  A
C4         C1701   1.438       .  S
C5            H7   1.082       .  S
Cu8          N11   2.077       .  S
Cu9          N19   2.069       .  S
Cu10         N12   2.075       .  S
Cu10         N18   2.074       .  S
N11          N12   1.323       .  A
N11          C15   1.346       .  A
N12          C13   1.345       .  A
C13          C14   1.381       .  A
C13          H16   1.082       .  S
C14          C15   1.384       .  A
C14        C1694   1.473       .  S
C15          H17   1.082       .  S
N18          N19   1.322       .  A
N18          C22   1.346       .  A
N19          C20   1.345       .  A
C20          C21   1.379       .  A
C20          H23   1.082       .  S
C21          C22   1.381       .  A
C21        C1700   1.437       .  S
C22          H24   1.082       .  S
N25          N26   1.323       .  A
N25          C29   1.348       .  A
N25         Cu33   2.084       .  S
N26          C27   1.344       .  A
N26         Cu32   2.067       .  S
C27          C28   1.378       .  A
C27          H30   1.082       .  S
C28          C29   1.382       .  A
C28        C1689   1.439       .  S
C29          H31   1.082       .  S
Cu32         N35   2.067       .  S
Cu33         N43   2.085       .  S
Cu34         N36   2.075       .  S
Cu34         N42   2.076       .  S
N35          N36   1.322       .  A
N35          C39   1.344       .  A
N36          C37   1.346       .  A
C37          C38   1.385       .  A
C37          H40   1.082       .  S
C38          C39   1.380       .  A
C38        C1681   1.472       .  S
C39          H41   1.082       .  S
N42          N43   1.324       .  A
N42          C46   1.346       .  A
N43          C44   1.347       .  A
C44          C45   1.381       .  A
C44          H47   1.082       .  S
C45          C46   1.379       .  A
C45        C1688   1.440       .  S
C46          H48   1.082       .  S
N49          N50   1.322       .  A
N49          C53   1.345       .  A
N49         Cu57   2.077       .  S
N50          C51   1.344       .  A
N50         Cu56   2.061       .  S
C51          C52   1.377       .  A
C51          H54   1.082   1_655  S
C52          C53   1.380       .  A
C52        C1676   1.434       .  S
C53          H55   1.082       .  S
Cu56         N59   2.061       .  S
Cu57         N67   2.078       .  S
Cu58         N60   2.075       .  S
Cu58         N66   2.075       .  S
N59          N60   1.321       .  A
N59          C63   1.342   1_655  A
N60          C61   1.347       .  A
C61          C62   1.383   1_655  A
C61          H64   1.082       .  S
C62          C63   1.382       .  A
C62        C1669   1.473       .  S
C63          H65   1.082       .  S
N66          N67   1.324       .  A
N66          C70   1.345       .  A
N67          C68   1.346       .  A
C68          C69   1.380       .  A
C68          H71   1.082       .  S
C69          C70   1.378       .  A
C69        C1677   1.438       .  S
C70          H72   1.082       .  S
N73          N74   1.324       .  A
N73          C77   1.342       .  A
N73         Cu81   2.065       .  S
N74          C75   1.349       .  A
N74         Cu80   2.086       .  S
C75          C76   1.383       .  A
C75          H78   1.082       .  S
C76          C77   1.376       .  A
C76        C1680   1.437       .  S
C77          H79   1.082       .  S
Cu80         N83   2.086       .  S
Cu81         N91   2.065       .  S
Cu82         N84   2.073       .  S
Cu82         N90   2.073       .  S
N83          N84   1.324       .  A
N83          C87   1.348       .  A
N84          C85   1.343       .  A
C85          C86   1.379       .  A
C85          H88   1.082       .  S
C86          C87   1.386       .  A
C86        C1665   1.474       .  S
C87          H89   1.082       .  S
N90          N91   1.321       .  A
N90          C94   1.346       .  A
N91          C92   1.345       .  A
C92          C93   1.379       .  A
C92          H95   1.082       .  S
C93          C94   1.381       .  A
C93        C1697   1.437       .  S
C94          H96   1.082       .  S
N97          N98   1.322       .  A
N97         C101   1.343       .  A
N97        Cu105   2.065       .  S
N98          C99   1.346       .  A
N98        Cu104   2.067       .  S
C99         C100   1.380       .  A
C99         H102   1.082       .  S
C100        C101   1.377       .  A
C100       C1673   1.433       .  S
C101        H103   1.082       .  S
Cu104       N107   2.068   1_655  S
Cu105       N115   2.065       .  S
Cu106       N108   2.086   1_655  S
Cu106       N114   2.086       .  S
N107        N108   1.324       .  A
N107        C111   1.344       .  A
N108        C109   1.346       .  A
C109        C110   1.385       .  A
C109        H112   1.082       .  S
C110        C111   1.378       .  A
C110       C1661   1.470       .  S
C111        H113   1.083       .  S
N114        N115   1.323       .  A
N114        C118   1.349       .  A
N115        C116   1.344       .  A
C116        C117   1.377       .  A
C116        H119   1.082       .  S
C117        C118   1.384       .  A
C117       C1685   1.440       .  S
C118        H120   1.082       .  S
N121        N122   1.323       .  A
N121        C125   1.345       .  A
N121       Cu129   2.070       .  S
N122        C123   1.347       .  A
N122       Cu128   2.078       .  S
C123        C124   1.381       .  A
C123        H126   1.082       .  S
C124        C125   1.379       .  A
C124       C1692   1.439       .  S
C125        H127   1.082       .  S
Cu128       N131   2.078       .  S
Cu129       N139   2.070       .  S
Cu130       N132   2.083       .  S
Cu130       N138   2.082       .  S
N131        N132   1.324       .  A
N131        C135   1.346       .  A
N132        C133   1.346       .  A
C133        C134   1.384       .  A
C133        H136   1.082       .  S
C134        C135   1.381       .  A
C134       C1657   1.476       .  S
C135        H137   1.082       .  S
N138        N139   1.323       .  A
N138        C142   1.348       .  A
N139        C140   1.344       .  A
C140        C141   1.378       .  A
C140        H143   1.082       .  S
C141        C142   1.382       .  A
C141       C1704   1.439       .  S
C142        H144   1.082       .  S
N145        N146   1.324       .  A
N145        C149   1.347       .  A
N145       Cu153   2.084       .  S
N146        C147   1.347       .  A
N146       Cu152   2.080       .  S
C147        C148   1.380       .  A
C147        H150   1.082       .  S
C148        C149   1.381       .  A
C148       C1652   1.442       .  S
C149        H151   1.082       .  S
Cu152       N155   2.078       .  S
Cu153       N163   2.083       .  S
Cu154       N156   2.063       .  S
Cu154       N162   2.063       .  S
N155        N156   1.322       .  A
N155        C159   1.347       .  A
N156        C157   1.342       .  A
C157        C158   1.378       .  A
C157        H160   1.082       .  S
C158        C159   1.384       .  A
C158       C1646   1.468       .  S
C159        H161   1.082       .  S
N162        N163   1.323       .  A
N162        C166   1.344       .  A
N163        C164   1.347       .  A
C164        C165   1.382       .  A
C164        H167   1.082       .  S
C165        C166   1.378       .  A
C165       C1656   1.438       .  S
C166        H168   1.082       .  S
N169        N170   1.324       .  A
N169        C173   1.347       .  A
N169       Cu177   2.080       .  S
N170        C171   1.346       .  A
N170       Cu176   2.079       .  S
C171        C172   1.380       .  A
C171        H174   1.082       .  S
C172        C173   1.381       .  A
C172       C1641   1.440       .  S
C173        H175   1.082       .  S
Cu176       N179   2.078       .  S
Cu177       N187   2.079       .  S
Cu178       N180   2.066       .  S
Cu178       N186   2.066       .  S
N179        N180   1.322       .  A
N179        C183   1.346       .  A
N180        C181   1.344       .  A
C181        C182   1.379       .  A
C181        H184   1.083       .  S
C182        C183   1.385       .  A
C182       C1634   1.472       .  S
C183        H185   1.082       .  S
N186        N187   1.323       .  A
N186        C190   1.345       .  A
N187        C188   1.347       .  A
C188        C189   1.381       .  A
C188        H191   1.082       .  S
C189        C190   1.378       .  A
C189       C1637   1.437       .  S
C190        H192   1.082       .  S
N193        N194   1.323       .  A
N193        C197   1.346       .  A
N193       Cu201   2.076       .  S
N194        C195   1.348       .  A
N194       Cu200   2.079       .  S
C195        C196   1.382       .  A
C195        H198   1.082       .  S
C196        C197   1.380       .  A
C196       C1632   1.441       .  S
C197        H199   1.082       .  S
Cu200       N203   2.079       .  S
Cu201       N211   2.076       .  S
Cu202       N204   2.088       .  S
Cu202       N210   2.088       .  S
N203        N204   1.324       .  A
N203        C207   1.345       .  A
N204        C205   1.348       .  A
C205        C206   1.383       .  A
C205        H208   1.082       .  S
C206        C207   1.383       .  A
C206       C1621   1.478       .  S
C207        H209   1.082       .  S
N210        N211   1.324       .  A
N210        C214   1.349       .  A
N211        C212   1.346       .  A
C212        C213   1.380       .  A
C212        H215   1.082       .  S
C213        C214   1.383       .  A
C213       C1625   1.443       .  S
C214        H216   1.082       .  S
N217        N218   1.324       .  A
N217        C221   1.345       .  A
N217       Cu225   2.073       .  S
N218        C219   1.349       .  A
N218       Cu224   2.089       .  S
C219        C220   1.383       .  A
C219        H222   1.082       .  S
C220        C221   1.379       .  A
C220       C1649   1.442       .  S
C221        H223   1.082       .  S
Cu224       N227   2.089       .  S
Cu225       N235   2.073       .  S
Cu226       N228   2.087       .  S
Cu226       N234   2.086       .  S
N227        N228   1.324       .  A
N227        C231   1.350       .  A
N228        C229   1.345       .  A
C229        C230   1.382       .  A
C229        H232   1.082       .  S
C230        C231   1.386       .  A
C230       C1618   1.479       .  S
C231        H233   1.082       .  S
N234        N235   1.322       .  A
N234        C238   1.349       .  A
N235        C236   1.346       .  A
C236        C237   1.380       .  A
C236        H239   1.082       .  S
C237        C238   1.384       .  A
C237       C1628   1.444       .  S
C238        H240   1.082       .  S
N241        N242   1.323       .  A
N241        C245   1.346       .  A
N241       Cu249   2.075       .  S
N242        C243   1.346       .  A
N242       Cu248   2.077       .  S
C243        C244   1.381       .  A
C243        H246   1.082       .  S
C244        C245   1.381       .  A
C244       C1644   1.440       .  S
C245        H247   1.082       .  S
Cu248       N251   2.078       .  S
Cu249       N259   2.075       .  S
Cu250       N252   2.087       .  S
Cu250       N258   2.087       .  S
N251        N252   1.323       .  A
N251        C255   1.345       .  A
N252        C253   1.348       .  A
C253        C254   1.387       .  A
C253        H256   1.082       .  S
C254        C255   1.381       .  A
C254       C1613   1.478       .  S
C255        H257   1.082       .  S
N258        N259   1.324       .  A
N258        C262   1.348       .  A
N259        C260   1.345       .  A
C260        C261   1.379       .  A
C260        H263   1.082       .  S
C261        C262   1.383       .  A
C261       C1629   1.442       .  S
C262        H264   1.082       .  S
N265        N266   1.322       .  A
N265        C269   1.343       .  A
N265       Cu273   2.060       .  S
N266        C267   1.349       .  A
N266       Cu272   2.086       .  S
C267        C268   1.384       .  A
C267        H270   1.082       .  S
C268        C269   1.376       .  A
C268       C1653   1.438       .  S
C269        H271   1.082       .  S
Cu272       N275   2.087       .  S
Cu273       N283   2.059       .  S
Cu274       N276   2.080       .  S
Cu274       N282   2.080       .  S
N275        N276   1.324       .  A
N275        C279   1.346       .  A
N276        C277   1.346       .  A
C277        C278   1.381       .  A
C277        H280   1.082       .  S
C278        C279   1.386       .  A
C278       C1609   1.479       .  S
C279        H281   1.082       .  S
N282        N283   1.322       .  A
N282        C286   1.348       .  A
N283        C284   1.342       .  A
C284        C285   1.376       .  A
C284        H287   1.082       .  S
C285        C286   1.383       .  A
C285       C1640   1.437       .  S
C286        H288   1.082       .  S
N289        N290   1.323       .  A
N289        C293   1.344       .  A
N289       Cu297   2.075       .  S
N290        C291   1.347       .  A
N290       Cu296   2.074       .  S
C291        C292   1.380       .  A
C291        H294   1.082       .  S
C292        C293   1.379       .  A
C292       C1601   1.437       .  S
C293        H295   1.082       .  S
Cu296       N299   2.074       .  S
Cu297       N307   2.075       .  S
Cu298       N300   2.073       .  S
Cu298       N306   2.073       .  S
N299        N300   1.323       .  A
N299        C303   1.345       .  A
N300        C301   1.345       .  A
C301        C302   1.380       .  A
C301        H304   1.082       .  S
C302        C303   1.384       .  A
C302       C1598   1.473       .  S
C303        H305   1.082       .  S
N306        N307   1.323       .  A
N306        C310   1.346       .  A
N307        C308   1.346       .  A
C308        C309   1.381       .  A
C308        H311   1.082       .  S
C309        C310   1.380       .  A
C309       C1605   1.438       .  S
C310        H312   1.082       .  S
N313        N314   1.324       .  A
N313        C317   1.345       .  A
N313       Cu321   2.080       .  S
N314        C315   1.346       .  A
N314       Cu320   2.072       .  S
C315        C316   1.379       .  A
C315        H318   1.082       .  S
C316        C317   1.379       .  A
C316       C1589   1.437       .  S
C317        H319   1.082       .  S
Cu320       N323   2.071       .  S
Cu321       N331   2.080       .  S
Cu322       N324   2.071       .  S
Cu322       N330   2.071       .  S
N323        N324   1.322       .  A
N323        C327   1.346       .  A
N324        C325   1.344       .  A
C325        C326   1.382       .  A
C325        H328   1.082       .  S
C326        C327   1.381       .  A
C326       C1586   1.471       .  S
C327        H329   1.082       .  S
N330        N331   1.322       .  A
N330        C334   1.345       .  A
N331        C332   1.347       .  A
C332        C333   1.382       .  A
C332        H335   1.082       .  S
C333        C334   1.379       .  A
C333       C1593   1.440       .  S
C334        H336   1.082       .  S
N337        N338   1.324       .  A
N337        C341   1.345       .  A
N337       Cu345   2.075       .  S
N338        C339   1.347       .  A
N338       Cu344   2.082       .  S
C339        C340   1.381       .  A
C339        H342   1.082       .  S
C340        C341   1.379       .  A
C340       C1580   1.438       .  S
C341        H343   1.082       .  S
Cu344       N347   2.082       .  S
Cu345       N355   2.075       .  S
Cu346       N348   2.069       .  S
Cu346       N354   2.069       .  S
N347        N348   1.323       .  A
N347        C351   1.348       .  A
N348        C349   1.342       .  A
C349        C350   1.378       .  A
C349        H352   1.083       .  S
C350        C351   1.386       .  A
C350       C1573   1.472       .  S
C351        H353   1.082       .  S
N354        N355   1.322       .  A
N354        C358   1.346       .  A
N355        C356   1.346       .  A
C356        C357   1.381       .  A
C356        H359   1.082       .  S
C357        C358   1.380       .  A
C357       C1581   1.439       .  S
C358        H360   1.082       .  S
N361        N362   1.324       .  A
N361        C365   1.345       .  A
N361       Cu369   2.071       .  S
N362        C363   1.347       .  A
N362       Cu368   2.084       .  S
C363        C364   1.380       .  A
C363        H366   1.082       .  S
C364        C365   1.378       .  A
C364       C1604   1.437       .  S
C365        H367   1.082       .  S
Cu368       N371   2.085       .  S
Cu369       N379   2.071       .  S
Cu370       N372   2.073       .  S
Cu370       N378   2.073       .  S
N371        N372   1.323       .  A
N371        C375   1.348       .  A
N372        C373   1.344       .  A
C373        C374   1.380       .  A
C373        H376   1.082       .  S
C374        C375   1.387       .  A
C374       C1569   1.477       .  S
C375        H377   1.082       .  S
N378        N379   1.322       .  A
N378        C382   1.347       .  A
N379        C380   1.344       .  A
C380        C381   1.379       .  A
C380        H383   1.082       .  S
C381        C382   1.380       .  A
C381       C1577   1.438       .  S
C382        H384   1.082       .  S
N385        N386   1.323       .  A
N385        C389   1.345       .  A
N385       Cu393   2.078       .  S
N386        C387   1.347       .  A
N386       Cu392   2.078       .  S
C387        C388   1.381       .  A
C387        H390   1.082       .  S
C388        C389   1.380       .  A
C388       C1596   1.441       .  S
C389        H391   1.082       .  S
Cu392       N395   2.078       .  S
Cu393       N403   2.078       .  S
Cu394       N396   2.070       .  S
Cu394       N402   2.070       .  S
N395        N396   1.323       .  A
N395        C399   1.346       .  A
N396        C397   1.344       .  A
C397        C398   1.380       .  A
C397        H400   1.082       .  S
C398        C399   1.384       .  A
C398       C1565   1.472       .  S
C399        H401   1.082       .  S
N402        N403   1.323       .  A
N402        C406   1.345       .  A
N403        C404   1.346       .  A
C404        C405   1.381       .  A
C404        H407   1.082       .  S
C405        C406   1.380       .  A
C405       C1584   1.439       .  S
C406        H408   1.082       .  S
N409        N410   1.323       .  A
N409        C413   1.345       .  A
N409       Cu417   2.071       .  S
N410        C411   1.346       .  A
N410       Cu416   2.075       .  S
C411        C412   1.380       .  A
C411        H414   1.082       .  S
C412        C413   1.379       .  A
C412       C1592   1.437       .  S
C413        H415   1.082       .  S
Cu416       N419   2.075       .  S
Cu417       N427   2.071       .  S
Cu418       N420   2.078       .  S
Cu418       N426   2.078       .  S
N419        N420   1.323       .  A
N419        C423   1.346       .  A
N420        C421   1.346       .  A
C421        C422   1.385       .  A
C421        H424   1.082       .  S
C422        C423   1.382       .  A
C422       C1561   1.476       .  S
C423        H425   1.082       .  S
N426        N427   1.323       .  A
N426        C430   1.346       .  A
N427        C428   1.345       .  A
C428        C429   1.379       .  A
C428        H431   1.082       .  S
C429        C430   1.381       .  A
C429       C1608   1.438       .  S
C430        H432   1.082       .  S
N433        N434   1.323       .  A
N433        C437   1.346       .  A
N433       Cu441   2.077       .  S
N434        C435   1.345   1_655  A
N434       Cu440   2.070       .  S
C435        C436   1.378   1_455  A
C435        H438   1.082       .  S
C436        C437   1.380       .  A
C436       C1553   1.437   1_655  S
C437        H439   1.082       .  S
Cu440       N443   2.070       .  S
Cu441       N451   2.077       .  S
Cu442       N444   2.070       .  S
Cu442       N450   2.070       .  S
N443        N444   1.322       .  A
N443        C447   1.345   1_655  A
N444        C445   1.344       .  A
C445        C446   1.382   1_655  A
C445        H448   1.082       .  S
C446        C447   1.381       .  A
C446       C1550   1.471       .  S
C447        H449   1.082       .  S
N450        N451   1.323       .  A
N450        C454   1.344       .  A
N451        C452   1.346       .  A
C452        C453   1.381       .  A
C452        H455   1.082       .  S
C453        C454   1.379       .  A
C453       C1557   1.438       .  S
C454        H456   1.082       .  S
N457        N458   1.323       .  A
N457        C461   1.345       .  A
N457       Cu465   2.074       .  S
N458        C459   1.347       .  A
N458       Cu464   2.078       .  S
C459        C460   1.381       .  A
C459        H462   1.082       .  S
C460        C461   1.380       .  A
C460       C1548   1.439       .  S
C461        H463   1.082       .  S
Cu464       N467   2.078       .  S
Cu465       N475   2.074       .  S
Cu466       N468   2.077       .  S
Cu466       N474   2.077       .  S
N467        N468   1.323       .  A
N467        C471   1.346       .  A
N468        C469   1.346       .  A
C469        C470   1.381       .  A
C469        H472   1.082       .  S
C470        C471   1.385       .  A
C470       C1537   1.477       .  S
C471        H473   1.082       .  S
N474        N475   1.323       .  A
N474        C478   1.347       .  A
N475        C476   1.345       .  A
C476        C477   1.379       .  A
C476        H479   1.082       .  S
C477        C478   1.381       .  A
C477       C1544   1.439       .  S
C478        H480   1.082       .  S
N481        N482   1.324       .  A
N481        C485   1.345       .  A
N481       Cu489   2.074       .  S
N482        C483   1.350       .  A
N482       Cu488   2.095       .  S
C483        C484   1.385       .  A
C483        H486   1.082       .  S
C484        C485   1.378       .  A
C484       C1529   1.444       .  S
C485        H487   1.082       .  S
Cu488       N491   2.095       .  S
Cu489       N499   2.073       .  S
Cu490       N492   2.079       .  S
Cu490       N498   2.078   1_455  S
N491        N492   1.324   1_655  A
N491        C495   1.350       .  A
N492        C493   1.345       .  A
C493        C494   1.381       .  A
C493        H496   1.083       .  S
C494        C495   1.387   1_455  A
C494       C1525   1.479       .  S
C495        H497   1.082       .  S
N498        N499   1.322       .  A
N498        C502   1.347   1_655  A
N499        C500   1.345       .  A
C500        C501   1.380   1_655  A
C500        H503   1.082       .  S
C501        C502   1.381       .  A
C501       C1533   1.440       .  S
C502        H504   1.082       .  S
N505        N506   1.324       .  A
N505        C509   1.346       .  A
N505       Cu513   2.079       .  S
N506        C507   1.345       .  A
N506       Cu512   2.072       .  S
C507        C508   1.379       .  A
C507        H510   1.082       .  S
C508        C509   1.380       .  A
C508       C1556   1.436       .  S
C509        H511   1.082       .  S
Cu512       N515   2.071       .  S
Cu513       N523   2.079       .  S
Cu514       N516   2.066       .  S
Cu514       N522   2.067       .  S
N515        N516   1.321       .  A
N515        C519   1.345       .  A
N516        C517   1.344       .  A
C517        C518   1.379       .  A
C517        H520   1.082       .  S
C518        C519   1.385       .  A
C518       C1521   1.471       .  S
C519        H521   1.082       .  S
N522        N523   1.323       .  A
N522        C526   1.344       .  A
N523        C524   1.348       .  A
C524        C525   1.382       .  A
C524        H527   1.082       .  S
C525        C526   1.378       .  A
C525       C1536   1.439       .  S
C526        H528   1.082       .  S
N529        N530   1.323       .  A
N529        C533   1.344       .  A
N529       Cu537   2.071       .  S
N530        C531   1.348       .  A
N530       Cu536   2.080       .  S
C531        C532   1.382       .  A
C531        H534   1.082       .  S
C532        C533   1.378       .  A
C532       C1545   1.439       .  S
C533        H535   1.082       .  S
Cu536       N539   2.080       .  S
Cu537       N547   2.071       .  S
Cu538       N540   2.089       .  S
Cu538       N546   2.088       .  S
N539        N540   1.324       .  A
N539        C543   1.347       .  A
N540        C541   1.347       .  A
C541        C542   1.383       .  A
C541        H544   1.082       .  S
C542        C543   1.384       .  A
C542       C1517   1.479       .  S
C543        H545   1.082       .  S
N546        N547   1.323       .  A
N546        C550   1.349       .  A
N547        C548   1.345       .  A
C548        C549   1.380       .  A
C548        H551   1.082       .  S
C549        C550   1.384       .  A
C549       C1532   1.444       .  S
C550        H552   1.082       .  S
N553        N554   1.324       .  A
N553        C557   1.345       .  A
N553       Cu561   2.072       .  S
N554        C555   1.347       .  A
N554       Cu560   2.084       .  S
C555        C556   1.381       .  A
C555        H558   1.082       .  S
C556        C557   1.379       .  A
C556       C1560   1.439       .  S
C557        H559   1.082       .  S
Cu560       N563   2.084       .  S
Cu561       N571   2.071       .  S
Cu562       N564   2.078       .  S
Cu562       N570   2.078       .  S
N563        N564   1.323       .  A
N563        C567   1.348       .  A
N564        C565   1.345       .  A
C565        C566   1.385       .  A
C565        H568   1.082       .  S
C566        C567   1.384       .  A
C566       C1514   1.481       .  S
C567        H569   1.082       .  S
N570        N571   1.323       .  A
N570        C574   1.347       .  A
N571        C572   1.345       .  A
C572        C573   1.379       .  A
C572        H575   1.082       .  S
C573        C574   1.381       .  A
C573       C1541   1.439       .  S
C574        H576   1.082       .  S
N577        N578   1.323       .  A
N577        C581   1.345       .  A
N577       Cu585   2.073       .  S
N578        C579   1.348       .  A
N578       Cu584   2.080       .  S
C579        C580   1.382       .  A
C579        H582   1.082       .  S
C580        C581   1.380       .  A
C580       C1509   1.440       .  S
C581        H583   1.082       .  S
Cu584       N587   2.081       .  S
Cu585       N595   2.074       .  S
Cu586       N588   2.089       .  S
Cu586       N594   2.089       .  S
N587        N588   1.324       .  A
N587        C591   1.346       .  A
N588        C589   1.348       .  A
C589        C590   1.384       .  A
C589        H592   1.082       .  S
C590        C591   1.384       .  A
C590       C1501   1.478       .  S
C591        H593   1.082       .  S
N594        N595   1.323       .  A
N594        C598   1.348       .  A
N595        C596   1.346       .  A
C596        C597   1.379       .  A
C596        H599   1.082       .  S
C597        C598   1.383       .  A
C597       C1505   1.443       .  S
C598        H600   1.082       .  S
N601        N602   1.324       .  A
N601        C605   1.347       .  A
N601       Cu609   2.083       .  S
N602        C603   1.346       .  A
N602       Cu608   2.075       .  S
C603        C604   1.379       .  A
C603        H606   1.082       .  S
C604        C605   1.381       .  A
C604       C1500   1.441       .  S
C605        H607   1.082       .  S
Cu608       N611   2.075       .  S
Cu609       N619   2.084       .  S
Cu610       N612   2.075       .  S
Cu610       N618   2.076       .  S
N611        N612   1.322       .  A
N611        C615   1.346       .  A
N612        C613   1.345       .  A
C613        C614   1.381       .  A
C613        H616   1.082   1_565  S
C614        C615   1.385       .  A
C614       C1490   1.474   1_565  S
C615        H617   1.082       .  S
N618        N619   1.323       .  A
N618        C622   1.347       .  A
N619        C620   1.347       .  A
C620        C621   1.382       .  A
C620        H623   1.082       .  S
C621        C622   1.381       .  A
C621       C1496   1.442       .  S
C622        H624   1.082       .  S
N625        N626   1.323       .  A
N625        C629   1.346       .  A
N625       Cu633   2.075       .  S
N626        C627   1.346       .  A
N626       Cu632   2.074       .  S
C627        C628   1.380       .  A
C627        H630   1.082       .  S
C628        C629   1.380       .  A
C628       C1484   1.438       .  S
C629        H631   1.082       .  S
Cu632       N635   2.074       .  S
Cu633       N643   2.075       .  S
Cu634       N636   2.080       .  S
Cu634       N642   2.080       .  S
N635        N636   1.323       .  A
N635        C639   1.345       .  A
N636        C637   1.347       .  A
C637        C638   1.386       .  A
C637        H640   1.082       .  S
C638        C639   1.381       .  A
C638       C1478   1.476       .  S
C639        H641   1.082       .  S
N642        N643   1.324       .  A
N642        C646   1.347       .  A
N643        C644   1.346       .  A
C644        C645   1.380       .  A
C644        H647   1.082       .  S
C645        C646   1.381       .  A
C645       C1488   1.440       .  S
C646        H648   1.082       .  S
N649        N650   1.322       .  A
N649        C653   1.344       .  A
N649       Cu657   2.067       .  S
N650        C651   1.348       .  A
N650       Cu656   2.082       .  S
C651        C652   1.383       .  A
C651        H654   1.082       .  S
C652        C653   1.378       .  A
C652       C1485   1.440       .  S
C653        H655   1.082       .  S
Cu656       N659   2.083       .  S
Cu657       N667   2.068       .  S
Cu658       N660   2.093       .  S
Cu658       N666   2.093       .  S
N659        N660   1.325       .  A
N659        C663   1.345       .  A
N660        C661   1.350       .  A
C661        C662   1.386       .  A
C661        H664   1.082       .  S
C662        C663   1.381       .  A
C662       C1474   1.478       .  S
C663        H665   1.082       .  S
N666        N667   1.323       .  A
N666        C670   1.349       .  A
N667        C668   1.344       .  A
C668        C669   1.378       .  A
C668        H671   1.082       .  S
C669        C670   1.385       .  A
C669       C1508   1.443       .  S
C670        H672   1.082       .  S
N673        N674   1.321       .  A
N673        C677   1.345       .  A
N673       Cu681   2.068   1_565  S
N674        C675   1.346       .  A
N674       Cu680   2.070   1_565  S
C675        C676   1.381       .  A
C675        H678   1.082       .  S
C676        C677   1.380       .  A
C676       C1481   1.438       .  S
C677        H679   1.082       .  S
Cu680       N683   2.071       .  S
Cu681       N691   2.069       .  S
Cu682       N684   2.094       .  S
Cu682       N690   2.094       .  S
N683        N684   1.324       .  A
N683        C687   1.342       .  A
N684        C685   1.350       .  A
C685        C686   1.388       .  A
C685        H688   1.082       .  S
C686        C687   1.378       .  A
C686       C1469   1.477       .  S
C687        H689   1.082       .  S
N690        N691   1.324       .  A
N690        C694   1.350       .  A
N691        C692   1.344       .  A
C692        C693   1.377       .  A
C692        H695   1.082   1_545  S
C693        C694   1.385       .  A
C693       C1493   1.442       .  S
C694        H696   1.082       .  S
N697        N698   1.323       .  A
N697        C701   1.346       .  A
N697       Cu705   2.077       .  S
N698        C699   1.347       .  A
N698       Cu704   2.079       .  S
C699        C700   1.381       .  A
C699        H702   1.082       .  S
C700        C701   1.380       .  A
C700       C1497   1.440       .  S
C701        H703   1.082       .  S
Cu704       N707   2.079       .  S
Cu705       N715   2.077       .  S
Cu706       N708   2.079       .  S
Cu706       N714   2.079       .  S
N707        N708   1.323       .  A
N707        C711   1.344       .  A
N708        C709   1.348       .  A
C709        C710   1.385       .  A
C709        H712   1.082       .  S
C710        C711   1.381       .  A
C710       C1465   1.476       .  S
C711        H713   1.083       .  S
N714        N715   1.323       .  A
N714        C718   1.346       .  A
N715        C716   1.346       .  A
C716        C717   1.381       .  A
C716        H719   1.082       .  S
C717        C718   1.381       .  A
C717       C1512   1.440       .  S
C718        H720   1.082       .  S
N721        N722   1.323       .  A
N721        C725   1.345       .  A
N721       Cu729   2.077       .  S
N722        C723   1.346       .  A
N722       Cu728   2.071       .  S
C723        C724   1.380       .  A
C723        H726   1.082       .  S
C724        C725   1.380       .  A
C724       C1461   1.438       .  S
C725        H727   1.082       .  S
Cu728       N731   2.070       .  S
Cu729       N739   2.078       .  S
Cu730       N732   2.074       .  S
Cu730       N738   2.074       .  S
N731        N732   1.323       .  A
N731        C735   1.344       .  A
N732        C733   1.345       .  A
C733        C734   1.380       .  A
C733        H736   1.082       .  S
C734        C735   1.382       .  A
C734       C1453   1.469       .  S
C735        H737   1.082       .  S
N738        N739   1.323       .  A
N738        C742   1.346       .  A
N739        C740   1.346       .  A
C740        C741   1.380       .  A
C740        H743   1.082       .  S
C741        C742   1.380       .  A
C741       C1460   1.439       .  S
C742        H744   1.082       .  S
N745        N746   1.322       .  A
N745        C749   1.345       .  A
N745       Cu753   2.071       .  S
N746        C747   1.346       .  A
N746       Cu752   2.073       .  S
C747        C748   1.380       .  A
C747        H750   1.082       .  S
C748        C749   1.379       .  A
C748       C1449   1.438       .  S
C749        H751   1.082       .  S
Cu752       N755   2.073       .  S
Cu753       N763   2.071       .  S
Cu754       N756   2.072       .  S
Cu754       N762   2.073       .  S
N755        N756   1.323       .  A
N755        C759   1.345       .  A
N756        C757   1.344       .  A
C757        C758   1.382       .  A
C757        H760   1.082       .  S
C758        C759   1.380       .  A
C758       C1441   1.469       .  S
C759        H761   1.082       .  S
N762        N763   1.323       .  A
N762        C766   1.346       .  A
N763        C764   1.344       .  A
C764        C765   1.379       .  A
C764        H767   1.082       .  S
C765        C766   1.380       .  A
C765       C1448   1.437       .  S
C766        H768   1.082       .  S
N769        N770   1.323       .  A
N769        C773   1.343       .  A
N769       Cu777   2.066       .  S
N770        C771   1.348       .  A
N770       Cu776   2.079       .  S
C771        C772   1.382       .  A
C771        H774   1.082   1_655  S
C772        C773   1.377       .  A
C772       C1436   1.437       .  S
C773        H775   1.082       .  S
Cu776       N779   2.079       .  S
Cu777       N787   2.066       .  S
Cu778       N780   2.077       .  S
Cu778       N786   2.077       .  S
N779        N780   1.324       .  A
N779        C783   1.345   1_655  A
N780        C781   1.346       .  A
C781        C782   1.385   1_655  A
C781        H784   1.082       .  S
C782        C783   1.381       .  A
C782       C1430   1.475       .  S
C783        H785   1.083       .  S
N786        N787   1.322       .  A
N786        C790   1.346       .  A
N787        C788   1.345       .  A
C788        C789   1.379       .  A
C788        H791   1.082       .  S
C789        C790   1.381       .  A
C789       C1440   1.437       .  S
C790        H792   1.082       .  S
N793        N794   1.323       .  A
N793        C797   1.344       .  A
N793       Cu801   2.069       .  S
N794        C795   1.347       .  A
N794       Cu800   2.079       .  S
C795        C796   1.382       .  A
C795        H798   1.082       .  S
C796        C797   1.378       .  A
C796       C1464   1.438       .  S
C797        H799   1.082       .  S
Cu800       N803   2.079       .  S
Cu801       N811   2.068       .  S
Cu802       N804   2.074       .  S
Cu802       N810   2.074       .  S
N803        N804   1.324       .  A
N803        C807   1.346       .  A
N804        C805   1.344       .  A
C805        C806   1.383       .  A
C805        H808   1.082       .  S
C806        C807   1.381       .  A
C806       C1425   1.472       .  S
C807        H809   1.082       .  S
N810        N811   1.322       .  A
N810        C814   1.347       .  A
N811        C812   1.344       .  A
C812        C813   1.378       .  A
C812        H815   1.082       .  S
C813        C814   1.381       .  A
C813       C1437   1.437       .  S
C814        H816   1.082       .  S
N817        N818   1.324       .  A
N817        C821   1.345       .  A
N817       Cu825   2.078       .  S
N818        C819   1.346       .  A
N818       Cu824   2.078       .  S
C819        C820   1.380       .  A
C819        H822   1.082       .  S
C820        C821   1.379       .  A
C820       C1452   1.438       .  S
C821        H823   1.082       .  S
Cu824       N827   2.077       .  S
Cu825       N835   2.077       .  S
Cu826       N828   2.064       .  S
Cu826       N834   2.064       .  S
N827        N828   1.322       .  A
N827        C831   1.347       .  A
N828        C829   1.342       .  A
C829        C830   1.383       .  A
C829        H832   1.081       .  S
C830        C831   1.383       .  A
C830       C1421   1.475       .  S
C831        H833   1.083       .  S
N834        N835   1.322       .  A
N834        C838   1.344       .  A
N835        C836   1.347       .  A
C836        C837   1.381       .  A
C836        H839   1.082       .  S
C837        C838   1.378       .  A
C837       C1433   1.437       .  S
C838        H840   1.082       .  S
N841        N842   1.323       .  A
N841        C845   1.345       .  A
N841       Cu849   2.075       .  S
N842        C843   1.347       .  A
N842       Cu848   2.078       .  S
C843        C844   1.381       .  A
C843        H846   1.082       .  S
C844        C845   1.379       .  A
C844       C1457   1.439       .  S
C845        H847   1.082       .  S
Cu848       N851   2.078   1_565  S
Cu849       N859   2.076       .  S
Cu850       N852   2.072       .  S
Cu850       N858   2.072   1_545  S
N851        N852   1.322       .  A
N851        C855   1.345       .  A
N852        C853   1.345       .  A
C853        C854   1.384       .  A
C853        H856   1.082       .  S
C854        C855   1.382       .  A
C854       C1417   1.474       .  S
C855        H857   1.082   1_545  S
N858        N859   1.323       .  A
N858        C862   1.346       .  A
N859        C860   1.346       .  A
C860        C861   1.380       .  A
C860        H863   1.082       .  S
C861        C862   1.379       .  A
C861       C1445   1.437       .  S
C862        H864   1.082       .  S
N865        N866   1.321       .  A
N865        C869   1.345       .  A
N865       Cu873   2.073       .  S
N866        C867   1.346       .  A
N866       Cu872   2.068       .  S
C867        C868   1.380       .  A
C867        H870   1.082       .  S
C868        C869   1.380       .  A
C868       C1412   1.438       .  S
C869        H871   1.082       .  S
Cu872       N875   2.067       .  S
Cu873       N883   2.073       .  S
Cu874       N876   2.081       .  S
Cu874       N882   2.081       .  S
N875        N876   1.324       .  A
N875        C879   1.343   1_655  A
N876        C877   1.346       .  A
C877        C878   1.384   1_655  A
C877        H880   1.082       .  S
C878        C879   1.377       .  A
C878       C1405   1.468       .  S
C879        H881   1.082       .  S
N882        N883   1.324       .  A
N882        C886   1.348       .  A
N883        C884   1.344       .  A
C884        C885   1.378       .  A
C884        H887   1.082       .  S
C885        C886   1.382       .  A
C885       C1413   1.439       .  S
C886        H888   1.082       .  S
N889        N890   1.323       .  A
N889        C893   1.346       .  A
N889       Cu897   2.075       .  S
N890        C891   1.345       .  A
N890       Cu896   2.074       .  S
C891        C892   1.380       .  A
C891        H894   1.082       .  S
C892        C893   1.381       .  A
C892       C1404   1.439       .  S
C893        H895   1.082       .  S
Cu896       N899   2.074       .  S
Cu897       N907   2.074       .  S
Cu898       N900   2.076       .  S
Cu898       N906   2.076       .  S
N899        N900   1.323       .  A
N899        C903   1.345       .  A
N900        C901   1.346       .  A
C901        C902   1.385       .  A
C901        H904   1.082       .  S
C902        C903   1.381       .  A
C902       C1394   1.475       .  S
C903        H905   1.082       .  S
N906        N907   1.323       .  A
N906        C910   1.346       .  A
N907        C908   1.345       .  A
C908        C909   1.379       .  A
C908        H911   1.082       .  S
C909        C910   1.381       .  A
C909       C1400   1.438       .  S
C910        H912   1.082       .  S
N913        N914   1.323       .  A
N913        C917   1.344       .  A
N913       Cu921   2.067       .  S
N914        C915   1.348       .  A
N914       Cu920   2.086       .  S
C915        C916   1.383       .  A
C915        H918   1.082       .  S
C916        C917   1.378       .  A
C916       C1385   1.441       .  S
C917        H919   1.082       .  S
Cu920       N923   2.086       .  S
Cu921       N931   2.067       .  S
Cu922       N924   2.067       .  S
Cu922       N930   2.067       .  S
N923        N924   1.323       .  A
N923        C927   1.346       .  A
N924        C925   1.344       .  A
C925        C926   1.379       .  A
C925        H928   1.082       .  S
C926        C927   1.386       .  A
C926       C1381   1.475       .  S
C927        H929   1.082       .  S
N930        N931   1.322       .  A
N930        C934   1.345       .  A
N931        C932   1.344       .  A
C932        C933   1.378       .  A
C932        H935   1.082       .  S
C933        C934   1.379       .  A
C933       C1389   1.433       .  S
C934        H936   1.082       .  S
N937        N938   1.323       .  A
N937        C941   1.343       .  A
N937       Cu945   2.060       .  S
N938        C939   1.349       .  A
N938       Cu944   2.090       .  S
C939        C940   1.384       .  A
C939        H942   1.082       .  S
C940        C941   1.376       .  A
C940       C1416   1.439       .  S
C941        H943   1.082       .  S
Cu944       N947   2.090       .  S
Cu945       N955   2.060       .  S
Cu946       N948   2.070       .  S
Cu946       N954   2.069       .  S
N947        N948   1.324       .  A
N947        C951   1.348       .  A
N948        C949   1.344       .  A
C949        C950   1.379       .  A
C949        H952   1.082       .  S
C950        C951   1.386       .  A
C950       C1377   1.475       .  S
C951        H953   1.082       .  S
N954        N955   1.321       .  A
N954        C958   1.345       .  A
N955        C956   1.343       .  A
C956        C957   1.377       .  A
C956        H959   1.082       .  S
C957        C958   1.380       .  A
C957       C1392   1.433       .  S
C958        H960   1.082       .  S
N961        N962   1.323       .  A
N961        C965   1.346       .  A
N961       Cu969   2.077       .  S
N962        C963   1.347       .  A
N962       Cu968   2.079       .  S
C963        C964   1.381       .  A
C963        H966   1.082       .  S
C964        C965   1.380       .  A
C964       C1388   1.441       .  S
C965        H967   1.082       .  S
Cu968       N971   2.078       .  S
Cu969       N979   2.077       .  S
Cu970       N972   2.076       .  S
Cu970       N978   2.076       .  S
N971        N972   1.323       .  A
N971        C975   1.346       .  A
N972        C973   1.345       .  A
C973        C974   1.383       .  A
C973        H976   1.082       .  S
C974        C975   1.381       .  A
C974       C1373   1.473       .  S
C975        H977   1.082       .  S
N978        N979   1.323       .  A
N978        C982   1.346       .  A
N979        C980   1.346       .  A
C980        C981   1.380       .  A
C980        H983   1.082       .  S
C981        C982   1.380       .  A
C981       C1401   1.439       .  S
C982        H984   1.082       .  S
N985        N986   1.323       .  A
N985        C989   1.347       .  A
N985       Cu993   2.084       .  S
N986        C987   1.345       .  A
N986       Cu992   2.069       .  S
C987        C988   1.378       .  A
C987        H990   1.082       .  S
C988        C989   1.382       .  A
C988       C1409   1.439       .  S
C989        H991   1.082       .  S
Cu992       N995   2.069       .  S
Cu993      N1003   2.085       .  S
Cu994       N996   2.069       .  S
Cu994      N1002   2.069       .  S
N995        N996   1.322       .  A
N995        C999   1.344       .  A
N996        C997   1.345       .  A
C997        C998   1.384       .  A
C997       H1000   1.082       .  S
C998        C999   1.380       .  A
C998       C1369   1.471       .  S
C999       H1001   1.082       .  S
N1002      N1003   1.324       .  A
N1002      C1006   1.345       .  A
N1003      C1004   1.347       .  A
C1004      C1005   1.382       .  A
C1004      H1007   1.082       .  S
C1005      C1006   1.378       .  A
C1005      C1397   1.438       .  S
C1006      H1008   1.082       .  S
N1009      N1010   1.322       .  A
N1009      C1013   1.346       .  A
N1009     Cu1017   2.073       .  S
N1010      C1011   1.344       .  A
N1010     Cu1016   2.067       .  S
C1011      C1012   1.378       .  A
C1011      H1014   1.082       .  S
C1012      C1013   1.380       .  A
C1012      C1365   1.436       .  S
C1013      H1015   1.082       .  S
Cu1016     N1019   2.067       .  S
Cu1017     N1027   2.073       .  S
Cu1018     N1020   2.075       .  S
Cu1018     N1026   2.076       .  S
N1019      N1020   1.322       .  A
N1019      C1023   1.343       .  A
N1020      C1021   1.346       .  A
C1021      C1022   1.382       .  A
C1021      H1024   1.082       .  S
C1022      C1023   1.382       .  A
C1022      C1357   1.472       .  S
C1023      H1025   1.082       .  S
N1026      N1027   1.323       .  A
N1026      C1030   1.346       .  A
N1027      C1028   1.345       .  A
C1028      C1029   1.379       .  A
C1028      H1031   1.082       .  S
C1029      C1030   1.380       .  A
C1029      C1364   1.437       .  S
C1030      H1032   1.082       .  S
N1033      N1034   1.322       .  A
N1033      C1037   1.346       .  A
N1033     Cu1041   2.075       .  S
N1034      C1035   1.346       .  A
N1034     Cu1040   2.072       .  S
C1035      C1036   1.380       .  A
C1035      H1038   1.082       .  S
C1036      C1037   1.381       .  A
C1036      C1353   1.439       .  S
C1037      H1039   1.082       .  S
Cu1040     N1043   2.072       .  S
Cu1041     N1051   2.075       .  S
Cu1042     N1044   2.084       .  S
Cu1042     N1050   2.085       .  S
N1043      N1044   1.323       .  A
N1043      C1047   1.344       .  A
N1044      C1045   1.348       .  A
C1045      C1046   1.384       .  A
C1045      H1048   1.082       .  S
C1046      C1047   1.382       .  A
C1046      C1346   1.476       .  S
C1047      H1049   1.082       .  S
N1050      N1051   1.324       .  A
N1050      C1054   1.347       .  A
N1051      C1052   1.345       .  A
C1052      C1053   1.379       .  A
C1052      H1055   1.082       .  S
C1053      C1054   1.381       .  A
C1053      C1352   1.440       .  S
C1054      H1056   1.082       .  S
N1057      N1058   1.323       .  A
N1057      C1061   1.346       .  A
N1057     Cu1065   2.075       .  S
N1058      C1059   1.346       .  A
N1058     Cu1064   2.078       .  S
C1059      C1060   1.381       .  A
C1059      H1062   1.082       .  S
C1060      C1061   1.380       .  A
C1060      C1337   1.440       .  S
C1061      H1063   1.082       .  S
Cu1064     N1067   2.077       .  S
Cu1065     N1075   2.075       .  S
Cu1066     N1068   2.069       .  S
Cu1066     N1074   2.070       .  S
N1067      N1068   1.322       .  A
N1067      C1071   1.345       .  A
N1068      C1069   1.345       .  A
C1069      C1070   1.381       .  A
C1069      H1072   1.082       .  S
C1070      C1071   1.384       .  A
C1070      C1334   1.474       .  S
C1071      H1073   1.082       .  S
N1074      N1075   1.323       .  A
N1074      C1078   1.345       .  A
N1075      C1076   1.346       .  A
C1076      C1077   1.380       .  A
C1076      H1079   1.082       .  S
C1077      C1078   1.378       .  A
C1077      C1344   1.435       .  S
C1078      H1080   1.082       .  S
N1081      N1082   1.325       .  A
N1081      C1085   1.345       .  A
N1081     Cu1089   2.079       .  S
N1082      C1083   1.347       .  A
N1082     Cu1088   2.084       .  S
C1083      C1084   1.381       .  A
C1083      H1086   1.082       .  S
C1084      C1085   1.379       .  A
C1084      C1356   1.439       .  S
C1085      H1087   1.082       .  S
Cu1088     N1091   2.084       .  S
Cu1089     N1099   2.078       .  S
Cu1090     N1092   2.074       .  S
Cu1090     N1098   2.073       .  S
N1091      N1092   1.322       .  A
N1091      C1095   1.349       .  A
N1092      C1093   1.344       .  A
C1093      C1094   1.380       .  A
C1093      H1096   1.082       .  S
C1094      C1095   1.387       .  A
C1094      C1329   1.477       .  S
C1095      H1097   1.082       .  S
N1098      N1099   1.322       .  A
N1098      C1102   1.345       .  A
N1099      C1100   1.347       .  A
C1100      C1101   1.382       .  A
C1100      H1103   1.082       .  S
C1101      C1102   1.380       .  A
C1101      C1340   1.440       .  S
C1102      H1104   1.082       .  S
N1105      N1106   1.322       .  A
N1105      C1109   1.343       .  A
N1105     Cu1113   2.063       .  S
N1106      C1107   1.347       .  A
N1106     Cu1112   2.077       .  S
C1107      C1108   1.382       .  A
C1107      H1110   1.082       .  S
C1108      C1109   1.377       .  A
C1108      C1361   1.437       .  S
C1109      H1111   1.082       .  S
Cu1112     N1115   2.077       .  S
Cu1113     N1123   2.063       .  S
Cu1114     N1116   2.078       .  S
Cu1114     N1122   2.078       .  S
N1115      N1116   1.324       .  A
N1115      C1119   1.345       .  A
N1116      C1117   1.346       .  A
C1117      C1118   1.381       .  A
C1117      H1120   1.082       .  S
C1118      C1119   1.382       .  A
C1118      C1325   1.473       .  S
C1119      H1121   1.082       .  S
N1122      N1123   1.323       .  A
N1122      C1126   1.347       .  A
N1123      C1124   1.343       .  A
C1124      C1125   1.377       .  A
C1124      H1127   1.082       .  S
C1125      C1126   1.381       .  A
C1125      C1341   1.435       .  S
C1126      H1128   1.082       .  S
N1129      N1130   1.322       .  A
N1129      C1133   1.344       .  A
N1129     Cu1137   2.066       .  S
N1130      C1131   1.345       .  A
N1130     Cu1136   2.069       .  S
C1131      C1132   1.380       .  A
C1131      H1134   1.082       .  S
C1132      C1133   1.379       .  A
C1132      C1368   1.436       .  S
C1133      H1135   1.082       .  S
Cu1136     N1139   2.069       .  S
Cu1137     N1147   2.066       .  S
Cu1138     N1140   2.084       .  S
Cu1138     N1146   2.084       .  S
N1139      N1140   1.324       .  A
N1139      C1143   1.345       .  A
N1140      C1141   1.346       .  A
C1141      C1142   1.384       .  A
C1141      H1144   1.082       .  S
C1142      C1143   1.379       .  A
C1142      C1321   1.472       .  S
C1143      H1145   1.082       .  S
N1146      N1147   1.323       .  A
N1146      C1150   1.349       .  A
N1147      C1148   1.343       .  A
C1148      C1149   1.377       .  A
C1148      H1151   1.082       .  S
C1149      C1150   1.383       .  A
C1149      C1349   1.439       .  S
C1150      H1152   1.082       .  S
O1153     Cu1161   2.014       .  S
O1153      C1163   1.277       .  A
O1154     Cu1161   2.000       .  S
O1154      C1164   1.275       .  A
O1155     Cu1161   2.013       .  S
O1155      C1165   1.279       .  A
O1156     Cu1161   2.031       .  S
O1156      C1166   1.280       .  A
O1157     Cu1162   2.005       .  S
O1157      C1166   1.277       .  A
O1158     Cu1162   2.015       .  S
O1158      C1165   1.277       .  A
O1159     Cu1162   2.015       .  S
O1159      C1164   1.279       .  A
O1160     Cu1162   2.002       .  S
O1160      C1163   1.277       .  A
Cu1161    Cu1162   2.376       .  S
C1163      C1426   1.471       .  S
C1164      C1322   1.470       .  S
C1165      C1378   1.475       .  S
C1166      C1473   1.481       .  S
O1167     Cu1175   2.003       .  S
O1167      C1177   1.278       .  A
O1168     Cu1175   2.002       .  S
O1168      C1178   1.276       .  A
O1169     Cu1175   2.016       .  S
O1169      C1179   1.278       .  A
O1170     Cu1175   2.003       .  S
O1170      C1180   1.277       .  A
O1171     Cu1176   2.012       .  S
O1171      C1180   1.276       .  A
O1172     Cu1176   2.005       .  S
O1172      C1179   1.277       .  A
O1173     Cu1176   2.026       .  S
O1173      C1178   1.280       .  A
O1174     Cu1176   2.024       .  S
O1174      C1177   1.279       .  A
Cu1175    Cu1176   2.373       .  S
C1177      C1466   1.478       .  S
C1178      C1610   1.476       .  S
C1179      C1326   1.472       .  S
C1180      C1566   1.468       .  S
O1181     Cu1189   2.024       .  S
O1181      C1191   1.279       .  A
O1182     Cu1189   2.005       .  S
O1182      C1192   1.277       .  A
O1183     Cu1189   2.013       .  S
O1183      C1193   1.278       .  A
O1184     Cu1189   2.012       .  S
O1184      C1194   1.276       .  A
O1185     Cu1190   2.021       .  S
O1185      C1194   1.279       .  A
O1186     Cu1190   2.014       .  S
O1186      C1193   1.278       .  A
O1187     Cu1190   2.019       .  S
O1187      C1192   1.278       .  A
O1188     Cu1190   2.008       .  S
O1188      C1191   1.278       .  A
Cu1189    Cu1190   2.373       .  S
C1191      C1614   1.479       .  S
C1192      C1374   1.473       .  S
C1193      C1658   1.474       .  S
C1194      C1330   1.478       .  S
O1195     Cu1203   2.003       .  S
O1195      C1205   1.276   1_455  A
O1196     Cu1203   2.019       .  S
O1196      C1206   1.278       .  A
O1197     Cu1203   1.997       .  S
O1197      C1207   1.277   1_455  A
O1198     Cu1203   2.011       .  S
O1198      C1208   1.277       .  A
O1199     Cu1204   2.001       .  S
O1199      C1208   1.277   1_655  A
O1200     Cu1204   2.015       .  S
O1200      C1207   1.278       .  A
O1201     Cu1204   1.996       .  S
O1201      C1206   1.277   1_655  A
O1202     Cu1204   2.010       .  S
O1202      C1205   1.278       .  A
Cu1203    Cu1204   2.377   1_455  S
C1205      C1422   1.470       .  S
C1206      C1662   1.472       .  S
C1207      C1370   1.471       .  S
C1208      C1522   1.469       .  S
O1209     Cu1217   2.011       .  S
O1209      C1219   1.278   1_565  A
O1210     Cu1217   2.026       .  S
O1210      C1220   1.280       .  A
O1211     Cu1217   2.019       .  S
O1211      C1221   1.279       .  A
O1212     Cu1217   2.002       .  S
O1212      C1222   1.278   1_565  A
O1213     Cu1218   2.020       .  S
O1213      C1222   1.278       .  A
O1214     Cu1218   2.005       .  S
O1214      C1221   1.276   1_545  A
O1215     Cu1218   2.006       .  S
O1215      C1220   1.276   1_545  A
O1216     Cu1218   2.021       .  S
O1216      C1219   1.278       .  A
Cu1217    Cu1218   2.375   1_565  S
C1219      C1470   1.477       .  S
C1220      C1513   1.476       .  S
C1221      C1562   1.474       .  S
C1222      C1418   1.475       .  S
O1223     Cu1231   2.025       .  S
O1223      C1233   1.280       .  A
O1224     Cu1231   2.005       .  S
O1224      C1234   1.278       .  A
O1225     Cu1231   2.011       .  S
O1225      C1235   1.278       .  A
O1226     Cu1231   2.022       .  S
O1226      C1236   1.279       .  A
O1227     Cu1232   2.011       .  S
O1227      C1236   1.277       .  A
O1228     Cu1232   2.029       .  S
O1228      C1235   1.279       .  A
O1229     Cu1232   2.021       .  S
O1229      C1234   1.278       .  A
O1230     Cu1232   2.006       .  S
O1230      C1233   1.276       .  A
Cu1231    Cu1232   2.375       .  S
C1233      C1570   1.476       .  S
C1234      C1666   1.476       .  S
C1235      C1617   1.481       .  S
C1236      C1518   1.475       .  S
O1237     Cu1245   2.020       .  S
O1237      C1247   1.280       .  A
O1238     Cu1245   2.006       .  S
O1238      C1248   1.276       .  A
O1239     Cu1245   2.013       .  S
O1239      C1249   1.276       .  A
O1240     Cu1245   2.007       .  S
O1240      C1250   1.278       .  A
O1241     Cu1246   2.012       .  S
O1241      C1250   1.277       .  A
O1242     Cu1246   1.998       .  S
O1242      C1249   1.276       .  A
O1243     Cu1246   2.014       .  S
O1243      C1248   1.279       .  A
O1244     Cu1246   1.999       .  S
O1244      C1247   1.276       .  A
Cu1245    Cu1246   2.376       .  S
C1247      C1489   1.472       .  S
C1248      C1393   1.474       .  S
C1249      C1442   1.469       .  S
C1250      C1333   1.472       .  S
O1251     Cu1259   2.011       .  S
O1251      C1261   1.277       .  A
O1252     Cu1259   1.999       .  S
O1252      C1262   1.275       .  A
O1253     Cu1259   1.995       .  S
O1253      C1263   1.276       .  A
O1254     Cu1259   2.016       .  S
O1254      C1264   1.277       .  A
O1255     Cu1260   2.002       .  S
O1255      C1264   1.278       .  A
O1256     Cu1260   2.018       .  S
O1256      C1263   1.279       .  A
O1257     Cu1260   2.016       .  S
O1257      C1262   1.279       .  A
O1258     Cu1260   2.003       .  S
O1258      C1261   1.275       .  A
Cu1259    Cu1260   2.377       .  S
C1261      C1549   1.468   1_545  S
C1262      C1633   1.470       .  S
C1263      C1585   1.471   1_545  S
C1264      C1682   1.472       .  S
O1265     Cu1273   2.013       .  S
O1265      C1275   1.278       .  A
O1266     Cu1273   2.012   1_565  S
O1266      C1276   1.278       .  A
O1267     Cu1273   2.016       .  S
O1267      C1277   1.278       .  A
O1268     Cu1273   2.012   1_565  S
O1268      C1278   1.277       .  A
O1269     Cu1274   2.016   1_565  S
O1269      C1278   1.279       .  A
O1270     Cu1274   2.015       .  S
O1270      C1277   1.278       .  A
O1271     Cu1274   2.008   1_565  S
O1271      C1276   1.277       .  A
O1272     Cu1274   2.012       .  S
O1272      C1275   1.278       .  A
Cu1273    Cu1274   2.369       .  S
C1275      C1345   1.474   1_556  S
C1276      C1597   1.472       .  S
C1277      C1622   1.475       .  S
C1278      C1477   1.475   1_556  S
O1279     Cu1287   1.999       .  S
O1279      C1289   1.276       .  A
O1280     Cu1287   2.013       .  S
O1280      C1290   1.278   1_556  A
O1281     Cu1287   2.009       .  S
O1281      C1291   1.277   1_556  A
O1282     Cu1287   1.995       .  S
O1282      C1292   1.277       .  A
O1283     Cu1288   2.020       .  S
O1283      C1292   1.278       .  A
O1284     Cu1288   2.002       .  S
O1284      C1291   1.278   1_556  A
O1285     Cu1288   2.001       .  S
O1285      C1290   1.277   1_556  A
O1286     Cu1288   2.014       .  S
O1286      C1289   1.279       .  A
Cu1287    Cu1288   2.377       .  S
C1289      C1670   1.469       .  S
C1290      C1358   1.470       .  S
C1291      C1406   1.469       .  S
C1292      C1645   1.471       .  S
O1293     Cu1301   2.001   1_565  S
O1293      C1303   1.277       .  A
O1294     Cu1301   2.017       .  S
O1294      C1304   1.278       .  A
O1295     Cu1301   2.005   1_565  S
O1295      C1305   1.276       .  A
O1296     Cu1301   2.002       .  S
O1296      C1306   1.276       .  A
O1297     Cu1302   2.020       .  S
O1297      C1306   1.280       .  A
O1298     Cu1302   2.022   1_565  S
O1298      C1305   1.280       .  A
O1299     Cu1302   2.000       .  S
O1299      C1304   1.277       .  A
O1300     Cu1302   2.009   1_565  S
O1300      C1303   1.276       .  A
Cu1301    Cu1302   2.375       .  S
C1303      C1454   1.466       .  S
C1304      C1693   1.472       .  S
C1305      C1538   1.475       .  S
C1306      C1382   1.473       .  S
O1307     Cu1315   2.005   1_554  S
O1307      C1317   1.276       .  A
O1308     Cu1315   2.019       .  S
O1308      C1318   1.278       .  A
O1309     Cu1315   2.019   1_554  S
O1309      C1319   1.278       .  A
O1310     Cu1315   2.020       .  S
O1310      C1320   1.278       .  A
O1311     Cu1316   2.020       .  S
O1311      C1320   1.279       .  A
O1312     Cu1316   2.017   1_554  S
O1312      C1319   1.278       .  A
O1313     Cu1316   2.001       .  S
O1313      C1318   1.278       .  A
O1314     Cu1316   2.018   1_554  S
O1314      C1317   1.280       .  A
Cu1315    Cu1316   2.374       .  S
C1317      C1429   1.473       .  S
C1318      C1574   1.474       .  S
C1319      C1502   1.476       .  S
C1320      C1526   1.479       .  S
C1321      C1322   1.340       .  D
C1321      H1323   1.086       .  S
C1322      H1324   1.087       .  S
C1325      C1326   1.342       .  D
C1325      H1327   1.087       .  S
C1326      H1328   1.087       .  S
C1329      C1330   1.342       .  D
C1329      H1331   1.087       .  S
C1330      H1332   1.087       .  S
C1333      C1334   1.342       .  D
C1333      H1335   1.087       .  S
C1334      H1336   1.087       .  S
C1337      C1338   1.208       .  T
C1338      C1339   1.415       .  S
C1339      C1340   1.208       .  T
C1341      C1342   1.204       .  T
C1342      C1343   1.410       .  S
C1343      C1344   1.205       .  T
C1345      C1346   1.343       .  D
C1345      H1347   1.087       .  S
C1346      H1348   1.086   1_554  S
C1349      C1350   1.207       .  T
C1350      C1351   1.414       .  S
C1351      C1352   1.207       .  T
C1353      C1354   1.207       .  T
C1354      C1355   1.413       .  S
C1355      C1356   1.207       .  T
C1357      C1358   1.342       .  D
C1357      H1359   1.087       .  S
C1358      H1360   1.087       .  S
C1361      C1362   1.206       .  T
C1362      C1363   1.412       .  S
C1363      C1364   1.206       .  T
C1365      C1366   1.205       .  T
C1366      C1367   1.411       .  S
C1367      C1368   1.205       .  T
C1369      C1370   1.342       .  D
C1369      H1371   1.087       .  S
C1370      H1372   1.087       .  S
C1373      C1374   1.343       .  D
C1373      H1375   1.087       .  S
C1374      H1376   1.087       .  S
C1377      C1378   1.341       .  D
C1377      H1379   1.087       .  S
C1378      H1380   1.087       .  S
C1381      C1382   1.340   1_554  D
C1381      H1383   1.087   1_554  S
C1382      H1384   1.087   1_556  S
C1385      C1386   1.208       .  T
C1386      C1387   1.416       .  S
C1387      C1388   1.208       .  T
C1389      C1390   1.203       .  T
C1390      C1391   1.408       .  S
C1391      C1392   1.203       .  T
C1393      C1394   1.343   1_455  D
C1393      H1395   1.086       .  S
C1394      H1396   1.087       .  S
C1397      C1398   1.206       .  T
C1398      C1399   1.413       .  S
C1399      C1400   1.206       .  T
C1401      C1402   1.207       .  T
C1402      C1403   1.414       .  S
C1403      C1404   1.207       .  T
C1405      C1406   1.339       .  D
C1405      H1407   1.087       .  S
C1406      H1408   1.087       .  S
C1409      C1410   1.207       .  T
C1410      C1411   1.413       .  S
C1411      C1412   1.206       .  T
C1413      C1414   1.207       .  T
C1414      C1415   1.414       .  S
C1415      C1416   1.207       .  T
C1417      C1418   1.343       .  D
C1417      H1419   1.087   1_545  S
C1418      H1420   1.087       .  S
C1421      C1422   1.343       .  D
C1421      H1423   1.088       .  S
C1422      H1424   1.087       .  S
C1425      C1426   1.341       .  D
C1425      H1427   1.087       .  S
C1426      H1428   1.087       .  S
C1429      C1430   1.342       .  D
C1429      H1431   1.087       .  S
C1430      H1432   1.087       .  S
C1433      C1434   1.206       .  T
C1434      C1435   1.412       .  S
C1435      C1436   1.206       .  T
C1437      C1438   1.206       .  T
C1438      C1439   1.412       .  S
C1439      C1440   1.206       .  T
C1441      C1442   1.340   1_665  D
C1441      H1443   1.087   1_655  S
C1442      H1444   1.087   1_455  S
C1445      C1446   1.206       .  T
C1446      C1447   1.412       .  S
C1447      C1448   1.206       .  T
C1449      C1450   1.206       .  T
C1450      C1451   1.413       .  S
C1451      C1452   1.206       .  T
C1453      C1454   1.340   1_554  D
C1453      H1455   1.087       .  S
C1454      H1456   1.086       .  S
C1457      C1458   1.207       .  T
C1458      C1459   1.414       .  S
C1459      C1460   1.207       .  T
C1461      C1462   1.207       .  T
C1462      C1463   1.413       .  S
C1463      C1464   1.207       .  T
C1465      C1466   1.345       .  D
C1465      H1467   1.087       .  S
C1466      H1468   1.087       .  S
C1469      C1470   1.341       .  D
C1469      H1471   1.087   1_545  S
C1470      H1472   1.086       .  S
C1473      C1474   1.345       .  D
C1473      H1475   1.086       .  S
C1474      H1476   1.087       .  S
C1477      C1478   1.342       .  D
C1477      H1479   1.087       .  S
C1478      H1480   1.087       .  S
C1481      C1482   1.206       .  T
C1482      C1483   1.413       .  S
C1483      C1484   1.206       .  T
C1485      C1486   1.207       .  T
C1486      C1487   1.414       .  S
C1487      C1488   1.207       .  T
C1489      C1490   1.341       .  D
C1489      H1491   1.087   1_545  S
C1490      H1492   1.086       .  S
C1493      C1494   1.209   1_545  T
C1494      C1495   1.417       .  S
C1495      C1496   1.209       .  T
C1497      C1498   1.208       .  T
C1498      C1499   1.415       .  S
C1499      C1500   1.208       .  T
C1501      C1502   1.343       .  D
C1501      H1503   1.086       .  S
C1502      H1504   1.087       .  S
C1505      C1506   1.209       .  T
C1506      C1507   1.418       .  S
C1507      C1508   1.209       .  T
C1509      C1510   1.208       .  T
C1510      C1511   1.415       .  S
C1511      C1512   1.207       .  T
C1513      C1514   1.344       .  D
C1513      H1515   1.086       .  S
C1514      H1516   1.087       .  S
C1517      C1518   1.343       .  D
C1517      H1519   1.087       .  S
C1518      H1520   1.086       .  S
C1521      C1522   1.339       .  D
C1521      H1523   1.087       .  S
C1522      H1524   1.084       .  S
C1525      C1526   1.344       .  D
C1525      H1527   1.087       .  S
C1526      H1528   1.087       .  S
C1529      C1530   1.210       .  T
C1530      C1531   1.419       .  S
C1531      C1532   1.210       .  T
C1533      C1534   1.207       .  T
C1534      C1535   1.414       .  S
C1535      C1536   1.207       .  T
C1537      C1538   1.342       .  D
C1537      H1539   1.087       .  S
C1538      H1540   1.087       .  S
C1541      C1542   1.207       .  T
C1542      C1543   1.414       .  S
C1543      C1544   1.207       .  T
C1545      C1546   1.207       .  T
C1546      C1547   1.414       .  S
C1547      C1548   1.207       .  T
C1549      C1550   1.341       .  D
C1549      H1551   1.086   1_455  S
C1550      H1552   1.087       .  S
C1553      C1554   1.205       .  T
C1554      C1555   1.411       .  S
C1555      C1556   1.205       .  T
C1557      C1558   1.206       .  T
C1558      C1559   1.413       .  S
C1559      C1560   1.207       .  T
C1561      C1562   1.343       .  D
C1561      H1563   1.087       .  S
C1562      H1564   1.087       .  S
C1565      C1566   1.339       .  D
C1565      H1567   1.087       .  S
C1566      H1568   1.086       .  S
C1569      C1570   1.341       .  D
C1569      H1571   1.087       .  S
C1570      H1572   1.087       .  S
C1573      C1574   1.342       .  D
C1573      H1575   1.087       .  S
C1574      H1576   1.087       .  S
C1577      C1578   1.206       .  T
C1578      C1579   1.412       .  S
C1579      C1580   1.206       .  T
C1581      C1582   1.207       .  T
C1582      C1583   1.414       .  S
C1583      C1584   1.207       .  T
C1585      C1586   1.343       .  D
C1585      H1587   1.087       .  S
C1586      H1588   1.087   1_565  S
C1589      C1590   1.205       .  T
C1590      C1591   1.411       .  S
C1591      C1592   1.205       .  T
C1593      C1594   1.208       .  T
C1594      C1595   1.415       .  S
C1595      C1596   1.208       .  T
C1597      C1598   1.341       .  D
C1597      H1599   1.087       .  S
C1598      H1600   1.087       .  S
C1601      C1602   1.206       .  T
C1602      C1603   1.412       .  S
C1603      C1604   1.206       .  T
C1605      C1606   1.206       .  T
C1606      C1607   1.413       .  S
C1607      C1608   1.206       .  T
C1609      C1610   1.343       .  D
C1609      H1611   1.087       .  S
C1610      H1612   1.087       .  S
C1613      C1614   1.344       .  D
C1613      H1615   1.087       .  S
C1614      H1616   1.086       .  S
C1617      C1618   1.345       .  D
C1617      H1619   1.086       .  S
C1618      H1620   1.087       .  S
C1621      C1622   1.344       .  D
C1621      H1623   1.087       .  S
C1622      H1624   1.087       .  S
C1625      C1626   1.209       .  T
C1626      C1627   1.418       .  S
C1627      C1628   1.210       .  T
C1629      C1630   1.208       .  T
C1630      C1631   1.416       .  S
C1631      C1632   1.208       .  T
C1633      C1634   1.340       .  D
C1633      H1635   1.087       .  S
C1634      H1636   1.087       .  S
C1637      C1638   1.206       .  T
C1638      C1639   1.412       .  S
C1639      C1640   1.205       .  T
C1641      C1642   1.208       .  T
C1642      C1643   1.415       .  S
C1643      C1644   1.208       .  T
C1645      C1646   1.340       .  D
C1645      H1647   1.087       .  S
C1646      H1648   1.087       .  S
C1649      C1650   1.209       .  T
C1650      C1651   1.417       .  S
C1651      C1652   1.209       .  T
C1653      C1654   1.206       .  T
C1654      C1655   1.413       .  S
C1655      C1656   1.206       .  T
C1657      C1658   1.342       .  D
C1657      H1659   1.087       .  S
C1658      H1660   1.087       .  S
C1661      C1662   1.341       .  D
C1661      H1663   1.087   1_455  S
C1662      H1664   1.087       .  S
C1665      C1666   1.342       .  D
C1665      H1667   1.087       .  S
C1666      H1668   1.087       .  S
C1669      C1670   1.342       .  D
C1669      H1671   1.087       .  S
C1670      H1672   1.087       .  S
C1673      C1674   1.203       .  T
C1674      C1675   1.408       .  S
C1675      C1676   1.204       .  T
C1677      C1678   1.206       .  T
C1678      C1679   1.413       .  S
C1679      C1680   1.206       .  T
C1681      C1682   1.341   1_655  D
C1681      H1683   1.087       .  S
C1682      H1684   1.086       .  S
C1685      C1686   1.207       .  T
C1686      C1687   1.415       .  S
C1687      C1688   1.208       .  T
C1689      C1690   1.207       .  T
C1690      C1691   1.414       .  S
C1691      C1692   1.207       .  T
C1693      C1694   1.343       .  D
C1693      H1695   1.086       .  S
C1694      H1696   1.087       .  S
C1697      C1698   1.205       .  T
C1698      C1699   1.412       .  S
C1699      C1700   1.206       .  T
C1701      C1702   1.207       .  T
C1702      C1703   1.414       .  S
C1703      C1704   1.207       .  T
