geometry optimzed in LAMMPS
_audit_creation_date              2020-11-30 
_audit_creation_method            'lammps2cif' 
_symmetry_space_group_name_H-M    'P1' 
_symmetry_Int_Tables_number       1 
_symmetry_cell_setting            triclinic 
loop_ 
_symmetry_equiv_pos_as_xyz 
  x,y,z 
_cell_length_a                    50.84353257 
_cell_length_b                    50.448230576978744 
_cell_length_c                    28.83454936549047 
_cell_angle_alpha                 90.61417668517697 
_cell_angle_beta                  87.4014504127662 
_cell_angle_gamma                 120.52940973839418 
loop_ 
_atom_site_label 
_atom_site_type_symbol 
_atom_site_fract_x 
_atom_site_fract_y 
_atom_site_fract_z 
_atom_site_charge 
C1          C  0.39055627  0.00263475  0.98932512     0.82300
N2          N  0.37804813  0.00599721  0.28401045    -0.76300
C3          C  0.34883835  0.50240411  0.28025185     0.84400
N4          N  0.33483631  0.50165384  0.32197624    -0.76300
C5          C  0.34710347  0.49743965  0.02851838     0.84500
N6          N  0.37660440  0.00142190  0.03117514    -0.78000
In7        In  0.30899221  0.49938826  0.15732307     1.36900
C8          C  0.31414080  0.05532874  0.16561419     0.79300
O9          O  0.30902406  0.49991253  0.23549048    -0.59100
O10         O  0.34861966  0.00392101  0.20300175    -0.50000
C11         C  0.25838991  0.44419764  0.16009821     0.72000
O12         O  0.25843427  0.46821657  0.14846355    -0.44900
C13         C  0.33332979  0.49813436  0.07404096     0.76700
O14         O  0.28941607  0.03038155  0.17304507    -0.56700
O15         O  0.34705854  0.00007406  0.11652702    -0.46800
O16         O  0.33697374  0.05253444  0.15596209    -0.53200
C17         C  0.33585047  0.00251797  0.24208140     0.86900
O18         O  0.28403002  0.44826029  0.16988515    -0.55100
O19         O  0.30868418  0.49835138  0.07900797    -0.58300
C20         C  0.49958032  0.39987483  0.00620301     0.82000
N21         N  0.49658990  0.38592906  0.04772430    -0.76300
C22         C  0.49427222  0.35785669  0.04926525     0.84400
N23         N  0.49436403  0.34350385  0.00900131    -0.76300
C24         C  0.49655478  0.36322760  0.30109623     0.84500
N25         N  0.49952225  0.39146280  0.29984784    -0.78000
In26       In  0.49235936  0.32022892  0.17692833     1.36900
C27         C  0.04556997  0.32067085  0.16747140     0.79300
O28         O  0.49273154  0.31894539  0.09857440    -0.59100
O29         O  0.49188418  0.35611190  0.13226664    -0.50000
C30         C  0.43668762  0.27019596  0.18011626     0.72000
O31         O  0.46046312  0.26917518  0.16945635    -0.44900
C32         C  0.49511073  0.34760464  0.25733054     0.76700
O33         O  0.02027300  0.29708412  0.17839416    -0.56700
O34         O  0.49701310  0.35988232  0.21854986    -0.46800
O35         O  0.04411987  0.34380383  0.15564584    -0.53200
C36         C  0.49269928  0.34378576  0.09441313     0.86900
O37         O  0.44122559  0.29662025  0.18914803    -0.55100
O38         O  0.49166043  0.32105627  0.25526296    -0.58300
C39         C  0.29832693  0.17007189  0.17442019     0.82000
N40         N  0.32625713  0.19577734  0.17780728    -0.76300
C41         C  0.35164795  0.19336772  0.17917688     0.84400
N42         N  0.34905492  0.16522995  0.17702420    -0.76300
C43         C  0.32115385  0.13952992  0.17363501     0.84500
N44         N  0.29582734  0.14198883  0.17228474    -0.78000
C45         C  0.15961931  0.30487997  0.17301800     0.82000
N46         N  0.13143412  0.30161626  0.17279189    -0.76300
C47         C  0.12849742  0.32682520  0.17033162     0.84400
N48         N  0.15376598  0.35534671  0.16794258    -0.76300
C49         C  0.18198709  0.35870035  0.16810775     0.84500
N50         N  0.18492300  0.33344370  0.17060723    -0.78000
C51         C  0.09309088  0.09183840  0.01179099     0.82000
N52         N  0.10692088  0.10596033  0.05109832    -0.76300
C53         C  0.13270305  0.13402161  0.04919618     0.84400
N54         N  0.14521792  0.14784665  0.00727479    -0.76300
C55         C  0.12811021  0.13673629  0.30116384     0.84500
N56         N  0.10199334  0.10871218  0.30379820    -0.78000
In57       In  0.16874638  0.17598769  0.17317922     1.36900
C58         C  0.16563360  0.22721873  0.17467858     0.79300
O59         O  0.17087249  0.17442983  0.09458263    -0.59100
O60         O  0.13299025  0.13802413  0.13170513    -0.50000
C61         C  0.22039330  0.17443541  0.17189365     0.72000
O62         O  0.21958948  0.19778388  0.15915781    -0.44900
C63         C  0.14218995  0.15094429  0.25570004     0.76700
O64         O  0.18965802  0.22707620  0.18280402    -0.56700
O65         O  0.13114763  0.13822554  0.21792130    -0.46800
O66         O  0.14310724  0.20129726  0.16587538    -0.53200
C67         C  0.14601159  0.14925952  0.09276200     0.86900
O68         O  0.19493184  0.15181178  0.18484154    -0.55100
O69         O  0.16657728  0.17662206  0.25133377    -0.58300
C70         C  0.48727345  0.46799711  0.02328779     0.04900
C71         C  0.01648470  0.49744747  0.01016864    -0.11300
C72         C  0.01325013  0.02224283  0.99691711     0.02400
C73         C  0.48568749  0.02013788  0.00225873    -0.09800
C74         C  0.45766012  0.49295490  0.01314816     0.04900
C75         C  0.45949348  0.46753500  0.02769279    -0.09200
H76         H  0.03809022  0.49796177  0.00771205     0.10500
H77         H  0.48522949  0.04079519  0.99374355     0.08000
H78         H  0.43901375  0.44687011  0.04015823     0.07900
C79         C  0.06535667  0.06126230  0.01574610    -0.14700
C80         C  0.04194179  0.05187144  0.98770297    -0.29800
H81         H  0.06294907  0.04703513  0.04554899     0.14400
H82         H  0.03958478  0.06992272  0.29470302     0.14900
C83         C  0.16410736  0.25491711  0.17512225    -0.11500
C84         C  0.16252135  0.27799547  0.17468016    -0.13100
C85         C  0.27136376  0.17246581  0.17291667    -0.11500
C86         C  0.24827490  0.17367244  0.17203050    -0.13100
C87         C  0.07410281  0.32140639  0.16869607    -0.11500
C88         C  0.09870833  0.32336853  0.16961728    -0.13100
C89         C  0.40658388  0.24326717  0.18143597    -0.11500
C90         C  0.38138783  0.22061101  0.18126997    -0.13100
C91         C  0.50250290  0.43030069  0.00296962    -0.14700
C92         C  0.48787030  0.43955892  0.03280508    -0.29800
H93         H  0.01654315  0.45129798  0.29674505     0.14400
H94         H  0.47320122  0.42429163  0.06092279     0.14900
C95         C  0.20869292  0.38896357  0.16500351    -0.11500
C96         C  0.23116223  0.41432848  0.16241072    -0.13100
C97         C  0.31845078  0.10976612  0.17083606    -0.11500
C98         C  0.31626812  0.08482581  0.16831573    -0.13100
C99         C  0.42787922  0.49146364  0.01669260    -0.14700
C100        C  0.41765601  0.50032773  0.98135449    -0.29800
H101        H  0.41329697  0.48103149  0.04767105     0.14400
H102        H  0.43584934  0.01829891  0.28956950     0.14900
C103        C  0.39152305  0.00653143  0.32377435     0.82300
N104        N  0.37822732  0.00930683  0.61621606    -0.76300
C105        C  0.34761531  0.50084748  0.61374974     0.84400
N106        N  0.33279535  0.49709041  0.65578899    -0.76300
C107        C  0.34832939  0.50234487  0.36197937     0.84500
N108        N  0.37733324  0.00542346  0.36538036    -0.78000
In109      In  0.30880892  0.50104410  0.49087171     1.36900
C110        C  0.31555991  0.06105959  0.49676659     0.79300
O111        O  0.30772195  0.49890428  0.56939037    -0.59100
O112        O  0.34899070  0.00884754  0.53625052    -0.50000
C113        C  0.25905244  0.44544487  0.49078671     0.72000
O114        O  0.25815621  0.46969126  0.48541879    -0.44900
C115        C  0.33396858  0.50201038  0.40738203     0.76700
O116        O  0.29090499  0.03647556  0.50634362    -0.56700
O117        O  0.34747980  0.00474647  0.45013779    -0.46800
O118        O  0.33794275  0.05769693  0.48619789    -0.53200
C119        C  0.33601914  0.00653963  0.57544349     0.86900
O120        O  0.28527826  0.44944345  0.49570517    -0.55100
O121        O  0.30926986  0.50210837  0.41241720    -0.58300
C122        C  0.49972281  0.40600911  0.33966729     0.82000
N123        N  0.49733784  0.39239704  0.38122410    -0.76300
C124        C  0.49499311  0.36436562  0.38285598     0.84400
N125        N  0.49444664  0.34968976  0.34269964    -0.76300
C126        C  0.48944858  0.36013921  0.63936884     0.84500
N127        N  0.48712532  0.38570364  0.64253605    -0.78000
In128      In  0.49089185  0.32526126  0.50987717     1.36900
C129        C  0.04532053  0.32598738  0.49800843     0.79300
O130        O  0.49316234  0.32534391  0.43176650    -0.59100
O131        O  0.49236768  0.36244401  0.46586699    -0.50000
C132        C  0.43522541  0.27594674  0.50881238     0.72000
O133        O  0.45908330  0.27425926  0.50438711    -0.44900
C134        C  0.49059549  0.34787205  0.59350400     0.76700
O135        O  0.02025966  0.30092569  0.50080161    -0.56700
O136        O  0.49208309  0.36167954  0.55642577    -0.46800
O137        O  0.04308412  0.34962902  0.49501272    -0.53200
C138        C  0.49339038  0.35030696  0.42790260     0.86900
O139        O  0.43966843  0.30268156  0.51414181    -0.55100
O140        O  0.48957471  0.32256466  0.58794478    -0.58300
C141        C  0.29730767  0.17404041  0.50464475     0.82000
N142        N  0.32494436  0.20032271  0.50575286    -0.76300
C143        C  0.35091302  0.19888169  0.50489077     0.84400
N144        N  0.34924002  0.17117138  0.50287395    -0.76300
C145        C  0.32163303  0.14488839  0.50174363     0.84500
N146        N  0.29567714  0.14634290  0.50265853    -0.78000
C147        C  0.15718629  0.30694787  0.50093763     0.82000
N148        N  0.12956761  0.30504698  0.50125475    -0.76300
C149        C  0.12798749  0.33107752  0.49939313     0.84400
N150        N  0.15404946  0.35900196  0.49711582    -0.76300
C151        C  0.18166766  0.36091469  0.49675791     0.84500
N152        N  0.18323129  0.33488507  0.49864957    -0.78000
C153        C  0.08970536  0.09503234  0.34585773     0.82000
N154        N  0.10348335  0.10947728  0.38504518    -0.76300
C155        C  0.12919731  0.13760590  0.38281301     0.84400
N156        N  0.14165459  0.15116308  0.34077961    -0.76300
C157        C  0.12859935  0.13751724  0.63376269     0.84500
N158        N  0.10287432  0.10925681  0.63525611    -0.78000
In159      In  0.16708511  0.17881209  0.50600665     1.36900
C160        C  0.16281471  0.22920002  0.50350289     0.79300
O161        O  0.16815594  0.17785072  0.42742909    -0.59100
O162        O  0.13039503  0.14159600  0.46517489    -0.50000
C163        C  0.21875972  0.17738844  0.50585273     0.72000
O164        O  0.21789812  0.20150247  0.51396318    -0.44900
C165        C  0.14207171  0.15278455  0.58869409     0.76700
O166        O  0.18779954  0.22994481  0.49665604    -0.56700
O167        O  0.13099711  0.14028158  0.55088442    -0.46800
O168        O  0.13996461  0.20283080  0.51125800    -0.53200
C169        C  0.14302805  0.15285878  0.42606075     0.86900
O170        O  0.19340170  0.15405056  0.49778029    -0.55100
O171        O  0.16585069  0.17894577  0.58447866    -0.58300
C172        C  0.48892926  0.47465875  0.36011501     0.04900
C173        C  0.01566048  0.50189609  0.33593981    -0.11300
C174        C  0.00999654  0.02534188  0.33179447     0.02400
C175        C  0.48713691  0.02488567  0.33543666    -0.09800
C176        C  0.45970744  0.49993239  0.34984219     0.04900
C177        C  0.46129146  0.47442490  0.36460707    -0.09200
H178        H  0.03698883  0.50209199  0.32990235     0.10500
H179        H  0.48675386  0.04568303  0.32763325     0.08000
H180        H  0.44071624  0.45380748  0.37686520     0.07900
C181        C  0.06209229  0.06434650  0.35008176    -0.14700
C182        C  0.03878079  0.05467543  0.32180296    -0.29800
H183        H  0.05959326  0.05033097  0.38022432     0.14400
H184        H  0.04160117  0.07251508  0.62625644     0.14900
C185        C  0.16057616  0.25642942  0.50275608    -0.11500
C186        C  0.15889085  0.27941686  0.50216361    -0.13100
C187        C  0.26979012  0.17550759  0.50540927    -0.11500
C188        C  0.24657334  0.17651880  0.50576098    -0.13100
C189        C  0.07432278  0.32754381  0.49849449    -0.11500
C190        C  0.09877524  0.32907533  0.49906291    -0.13100
C191        C  0.40516709  0.24932626  0.50763381    -0.11500
C192        C  0.38018659  0.22658395  0.50636472    -0.13100
C193        C  0.50247513  0.43632820  0.33673628    -0.14700
C194        C  0.48926119  0.44603670  0.36849245    -0.29800
H195        H  0.96790390  0.42503944  0.70682358     0.14400
H196        H  0.47561121  0.43116233  0.39758062     0.14900
C197        C  0.20919587  0.39046564  0.49396046    -0.11500
C198        C  0.23208573  0.41547403  0.49196529    -0.13100
C199        C  0.31984944  0.11553270  0.49966253    -0.11500
C200        C  0.31800835  0.09072574  0.49810740    -0.13100
C201        C  0.42994131  0.49840779  0.35249367    -0.14700
C202        C  0.41983989  0.50677238  0.31642439    -0.29800
H203        H  0.41518973  0.48816736  0.38343105     0.14400
H204        H  0.43690178  0.02447959  0.62173648     0.14900
C205        C  0.39148999  0.00812655  0.65523175     0.82300
N206        N  0.37703629  0.00262847  0.94984407    -0.76300
C207        C  0.34615268  0.49555626  0.94684654     0.84400
N208        N  0.33299817  0.49597121  0.98879459    -0.76300
C209        C  0.34620257  0.49649603  0.69528864     0.84500
N210        N  0.37677953  0.00454345  0.69723339    -0.78000
In211      In  0.30544435  0.49286405  0.82451027     1.36900
C212        C  0.31093669  0.05246181  0.83365649     0.79300
O213        O  0.30651900  0.49417099  0.90276313    -0.59100
O214        O  0.34709988  0.00128506  0.86954155    -0.50000
C215        C  0.25417556  0.43829273  0.83126013     0.72000
O216        O  0.25490803  0.46298088  0.84128384    -0.44900
C217        C  0.33122722  0.49439571  0.74102149     0.76700
O218        O  0.28692697  0.02733392  0.84349450    -0.56700
O219        O  0.34602913  0.99981954  0.78314509    -0.46800
O220        O  0.33396929  0.05037167  0.82223746    -0.53200
C221        C  0.33483156  0.00013194  0.90894517     0.86900
O222        O  0.27951435  0.44130502  0.81823373    -0.55100
O223        O  0.30557357  0.49248769  0.74616064    -0.58300
C224        C  0.48466802  0.39673476  0.68463120     0.82000
N225        N  0.48469675  0.38210585  0.72382733    -0.76300
C226        C  0.48757722  0.35677161  0.72099667     0.84400
N227        N  0.48977422  0.34570096  0.67868243    -0.76300
C228        C  0.49704923  0.35742011  0.96748382     0.84500
N229        N  0.49998801  0.38562729  0.96644346    -0.78000
In230      In  0.49226719  0.31623477  0.84154702     1.36900
C231        C  0.04110777  0.31679016  0.82768216     0.79300
O232        O  0.49250463  0.31895972  0.76348219    -0.59100
O233        O  0.48701302  0.35158691  0.80333807    -0.50000
C234        C  0.43783938  0.26510994  0.84183366     0.72000
O235        O  0.46196096  0.26552502  0.82834505    -0.44900
C236        C  0.49581158  0.34229450  0.92333460     0.76700
O237        O  0.01621123  0.29339413  0.84073161    -0.56700
O238        O  0.49778384  0.35518383  0.88514517    -0.46800
O239        O  0.03926442  0.33978370  0.81623026    -0.53200
C240        C  0.48894423  0.34195164  0.76359119     0.86900
O241        O  0.44154462  0.29042742  0.85573708    -0.55100
O242        O  0.49219581  0.31570924  0.92012281    -0.58300
C243        C  0.29901804  0.16992905  0.83662705     0.82000
N244        N  0.32780056  0.19460693  0.83789571    -0.76300
C245        C  0.35208344  0.19029038  0.83828406     0.84400
N246        N  0.34756777  0.16140428  0.83747977    -0.76300
C247        C  0.31885121  0.13679127  0.83623902     0.84500
N248        N  0.29457178  0.14102998  0.83581018    -0.78000
C249        C  0.15424008  0.29995712  0.83712303     0.82000
N250        N  0.12624828  0.29679885  0.83372851    -0.76300
C251        C  0.12355835  0.32216167  0.83114987     0.84400
N252        N  0.14881969  0.35063570  0.83197779    -0.76300
C253        C  0.17678666  0.35378009  0.83537390     0.84500
N254        N  0.17949198  0.32843657  0.83787490    -0.78000
C255        C  0.09113166  0.09399554  0.67639609     0.82000
N256        N  0.10515746  0.10716094  0.71611403    -0.76300
C257        C  0.13054242  0.13563080  0.71512638     0.84400
N258        N  0.14236821  0.15076098  0.67381705    -0.76300
C259        C  0.13162682  0.13368063  0.96750407     0.84500
N260        N  0.10537682  0.10577173  0.96990241    -0.78000
In261      In  0.16920889  0.17487695  0.83930702     1.36900
C262        C  0.16332702  0.22431222  0.83981343     0.79300
O263        O  0.16908571  0.17538127  0.76080190    -0.59100
O264        O  0.13303913  0.13716290  0.79774436    -0.50000
C265        C  0.22191622  0.17560400  0.83789094     0.72000
O266        O  0.22018009  0.19918318  0.84657143    -0.44900
C267        C  0.14516242  0.14836122  0.92205856     0.76700
O268        O  0.18786357  0.22543226  0.82702608    -0.56700
O269        O  0.13308419  0.13636103  0.88445342    -0.46800
O270        O  0.14181036  0.19810178  0.85235977    -0.53200
C271        C  0.14467060  0.14979231  0.75885615     0.86900
O272        O  0.19690827  0.15173903  0.82998386    -0.55100
O273        O  0.16969647  0.17389965  0.91745954    -0.58300
C274        C  0.49052384  0.47346651  0.65604496     0.04900
C275        C  0.01325069  0.49908953  0.63650644    -0.11300
C276        C  0.01164426  0.02547914  0.65488233     0.02400
C277        C  0.48685292  0.02488713  0.66179284    -0.09800
C278        C  0.46075485  0.49858226  0.66878139     0.04900
C279        C  0.46284623  0.47193128  0.66927490    -0.09200
H280        H  0.03392392  0.49919724  0.62488137     0.10500
H281        H  0.48684052  0.04630731  0.66463797     0.08000
H282        H  0.44264274  0.44987558  0.67757781     0.07900
C283        C  0.06350578  0.06317131  0.67841785    -0.14700
C284        C  0.04042933  0.05545300  0.65032880    -0.29800
H285        H  0.06102281  0.04731311  0.70583556     0.14400
H286        H  0.04273439  0.06735943  0.96101951     0.14900
C287        C  0.16003989  0.25090451  0.83977750    -0.11500
C288        C  0.15725434  0.27322866  0.83902288    -0.13100
C289        C  0.27311424  0.17412889  0.83677398    -0.11500
C290        C  0.25022432  0.17571872  0.83722801    -0.13100
C291        C  0.06964536  0.31746955  0.82691934    -0.11500
C292        C  0.09403530  0.31900939  0.82809043    -0.13100
C293        C  0.40811796  0.23803519  0.84083819    -0.11500
C294        C  0.38257031  0.21617290  0.83973137    -0.13100
C295        C  0.48170589  0.42425508  0.68779748    -0.14700
C296        C  0.49280526  0.44550698  0.65353659    -0.29800
H297        H  0.01320595  0.44570210  0.96519705     0.14400
H298        H  0.50568338  0.44335739  0.62403843     0.14900
C299        C  0.20359350  0.38386960  0.83523637    -0.11500
C300        C  0.22649533  0.40887686  0.83403836    -0.13100
C301        C  0.31433799  0.10635725  0.83568174    -0.11500
C302        C  0.31207356  0.08141382  0.83508020    -0.13100
C303        C  0.43066569  0.49602738  0.67723871    -0.14700
C304        C  0.42025609  0.50793503  0.64655567    -0.29800
H305        H  0.41574987  0.48158641  0.70579316     0.14400
H306        H  0.43490091  0.01420984  0.95514137     0.14900
C307        C  0.38769137  0.49832228  0.98431571     0.82300
N308        N  0.37638945  0.50408502  0.27873408    -0.76300
C309        C  0.35031557  0.00386954  0.28554732     0.84400
N310        N  0.33627792  0.00300760  0.32725396    -0.76300
C311        C  0.34931239  0.00026044  0.03366887     0.84500
N312        N  0.37432847  0.49845373  0.02609880    -0.78000
In313      In  0.31069342  0.00082755  0.16237949     1.36900
C314        C  0.31214987  0.55362550  0.16077024     0.79300
O315        O  0.30987658  0.99984684  0.24064584    -0.59100
O316        O  0.34675978  0.50180308  0.19762795    -0.50000
C317        C  0.25992267  0.94580012  0.16299724     0.72000
O318        O  0.25981803  0.97045154  0.15734046    -0.44900
C319        C  0.33519960  0.00015881  0.07917595     0.76700
O320        O  0.28780224  0.52876522  0.17061135    -0.56700
O321        O  0.34542139  0.49861933  0.11145134    -0.46800
O322        O  0.33473375  0.55086763  0.14890086    -0.53200
C323        C  0.33448130  0.50138061  0.23678661     0.86900
O324        O  0.28583777  0.94910439  0.16854309    -0.55100
O325        O  0.31062826  0.00052044  0.08416874    -0.58300
C326        C  0.49519957  0.89668286  0.00274098     0.82000
N327        N  0.49376748  0.88324054  0.04406252    -0.76300
C328        C  0.49154235  0.85521577  0.04526715     0.84400
N329        N  0.49014957  0.84036060  0.00493448    -0.76300
C330        C  0.49422310  0.85885881  0.29745239     0.84500
N331        N  0.49781736  0.88736677  0.29645327    -0.78000
In332      In  0.49187559  0.81788626  0.17199411     1.36900
C333        C  0.04544700  0.82119274  0.16775469     0.79300
O334        O  0.49114857  0.81658594  0.09371440    -0.59100
O335        O  0.49244034  0.85457505  0.12798604    -0.50000
C336        C  0.43653065  0.76800924  0.17391277     0.72000
O337        O  0.46056575  0.76657751  0.17082362    -0.44900
C338        C  0.49316196  0.84364487  0.25342503     0.76700
O339        O  0.02046720  0.79669569  0.17647896    -0.56700
O340        O  0.49590754  0.85662023  0.21500330    -0.46800
O341        O  0.04313881  0.84443461  0.16036175    -0.53200
C342        C  0.49159726  0.84168140  0.09002556     0.86900
O343        O  0.44065055  0.79475776  0.17688185    -0.55100
O344        O  0.48937379  0.81697278  0.25061386    -0.58300
C345        C  0.29820507  0.66943067  0.17022526     0.82000
N346        N  0.32647583  0.69482027  0.17152545    -0.76300
C347        C  0.35154854  0.69182151  0.17070685     0.84400
N348        N  0.34833138  0.66344002  0.16852236    -0.76300
C349        C  0.32005023  0.63806071  0.16720544     0.84500
N350        N  0.29499487  0.64106267  0.16806804    -0.78000
C351        C  0.16090720  0.80708903  0.16275396     0.82000
N352        N  0.13259601  0.80360569  0.16332729    -0.76300
C353        C  0.12940448  0.82874654  0.16363262     0.84400
N354        N  0.15458556  0.85738159  0.16345432    -0.76300
C355        C  0.18290196  0.86084851  0.16285444     0.84500
N356        N  0.18601529  0.83568826  0.16257118    -0.78000
C357        C  0.09605760  0.59353371  0.01120042     0.82000
N358        N  0.11043832  0.60803698  0.04993985    -0.76300
C359        C  0.13548939  0.63662545  0.04723823     0.84400
N360        N  0.14668503  0.65065068  0.00504614    -0.76300
C361        C  0.12810891  0.64548823  0.29897079     0.84500
N362        N  0.09918645  0.62077076  0.30177790    -0.78000
In363      In  0.17137803  0.67956466  0.17041526     1.36900
C364        C  0.16858526  0.73063000  0.16698731     0.79300
O365        O  0.17171058  0.67918644  0.09180637    -0.59100
O366        O  0.13864692  0.63932251  0.12947568    -0.50000
C367        C  0.22190153  0.67643630  0.17108042     0.72000
O368        O  0.22238253  0.70102597  0.16198758    -0.44900
C369        C  0.14357002  0.65765918  0.25340212     0.76700
O370        O  0.19305274  0.73105152  0.17409030    -0.56700
O371        O  0.13110908  0.64608849  0.21587444    -0.46800
O372        O  0.14565494  0.70431777  0.16187525    -0.53200
C373        C  0.14920596  0.65216211  0.09039085     0.86900
O374        O  0.19577414  0.65349016  0.17981503    -0.55100
O375        O  0.17026735  0.68053819  0.24862524    -0.58300
C376        C  0.48693319  0.96693417  0.02537080     0.04900
C377        C  0.01403573  0.99563841  0.00813112    -0.11300
C378        C  0.01559675  0.52420441  0.00049342     0.02400
C379        C  0.48420548  0.51963603  0.99640397    -0.09800
C380        C  0.45851333  0.99330616  0.01670905     0.04900
C381        C  0.45942575  0.96704083  0.02934895    -0.09200
H382        H  0.03570593  0.99626688  0.00697653     0.10500
H383        H  0.48305450  0.53971713  0.98658091     0.08000
H384        H  0.43850140  0.94624901  0.03998911     0.07900
C385        C  0.06870985  0.56275326  0.01590639    -0.14700
C386        C  0.04412043  0.55387438  0.99062360    -0.29800
H387        H  0.06755414  0.54815556  0.04434010     0.14400
H388        H  0.06019151  0.55825298  0.29432506     0.14900
C389        C  0.16677805  0.75804720  0.16490497    -0.11500
C390        C  0.16430172  0.78054637  0.16348211    -0.13100
C391        C  0.27168057  0.67251782  0.17098868    -0.11500
C392        C  0.24910081  0.67459230  0.17125115    -0.13100
C393        C  0.07450492  0.82270426  0.16625201    -0.11500
C394        C  0.09939653  0.82507922  0.16488026    -0.13100
C395        C  0.40660418  0.74114490  0.17345343    -0.11500
C396        C  0.38145520  0.71864084  0.17230059    -0.13100
C397        C  0.49853539  0.92737076  0.00015010    -0.14700
C398        C  0.48654990  0.93779458  0.03284488    -0.29800
H399        H  0.00766175  0.94649533  0.29866355     0.14400
H400        H  0.47324052  0.92315632  0.06232525     0.14900
C401        C  0.20963529  0.89106103  0.16292852    -0.11500
C402        C  0.23250811  0.91610952  0.16302204    -0.13100
C403        C  0.31664325  0.60805706  0.16495975    -0.11500
C404        C  0.31417642  0.58301928  0.16306012    -0.13100
C405        C  0.42899562  0.99244282  0.01989851    -0.14700
C406        C  0.42038267  0.00434935  0.98640355    -0.29800
H407        H  0.41316890  0.97995996  0.04894290     0.14400
H408        H  0.43353026  0.51442843  0.28403340     0.14900
C409        C  0.38978999  0.50454145  0.31856419     0.82300
N410        N  0.37588740  0.50428707  0.61145550    -0.76300
C411        C  0.35019443  0.00644790  0.61864015     0.84400
N412        N  0.33557439  0.00310876  0.66075330    -0.76300
C413        C  0.34984415  0.00390347  0.36727829     0.84500
N414        N  0.37564717  0.50360929  0.36006487    -0.78000
In415      In  0.31121692  0.00606081  0.49551941     1.36900
C416        C  0.30998267  0.55431616  0.49546034     0.79300
O417        O  0.31013256  0.00406232  0.57416611    -0.59100
O418        O  0.34663017  0.50376150  0.53135176    -0.50000
C419        C  0.25973292  0.95161466  0.49697932     0.72000
O420        O  0.26001099  0.97657223  0.49271573    -0.44900
C421        C  0.33555858  0.00419534  0.41254287     0.76700
O422        O  0.28572557  0.52881056  0.50183701    -0.56700
O423        O  0.34568643  0.50166781  0.44473034    -0.46800
O424        O  0.33361591  0.55274650  0.48669237    -0.53200
C425        C  0.33356830  0.50124085  0.57057041     0.86900
O426        O  0.28560727  0.95434999  0.50011730    -0.55100
O427        O  0.31086861  0.00439904  0.41711015    -0.58300
C428        C  0.49788195  0.90178437  0.33633427     0.82000
N429        N  0.49477074  0.88771532  0.37782303    -0.76300
C430        C  0.49175510  0.85933981  0.37923639     0.84400
N431        N  0.49133663  0.84485127  0.33892591    -0.76300
C432        C  0.48361752  0.85435558  0.63466746     0.84500
N433        N  0.48096260  0.87979538  0.63731889    -0.78000
In434      In  0.48668778  0.81898144  0.50614253     1.36900
C435        C  0.04519678  0.82598461  0.50243384     0.79300
O436        O  0.48718342  0.81874974  0.42780614    -0.59100
O437        O  0.49020374  0.85740601  0.46231240    -0.50000
C438        C  0.43175426  0.76827482  0.50808339     0.72000
O439        O  0.45611278  0.76746173  0.50531188    -0.44900
C440        C  0.48505925  0.84181062  0.58912888     0.76700
O441        O  0.02010106  0.80094897  0.50409480    -0.56700
O442        O  0.48499317  0.85442884  0.55169413    -0.46800
O443        O  0.04299532  0.84968660  0.50062926    -0.53200
C444        C  0.48954065  0.84473695  0.42418078     0.86900
O445        O  0.43531880  0.79483103  0.50991459    -0.55100
O446        O  0.48606355  0.81747438  0.58426252    -0.58300
C447        C  0.29388381  0.66923057  0.50338437     0.82000
N448        N  0.32213438  0.69454390  0.50568976    -0.76300
C449        C  0.34711319  0.69145684  0.50639476     0.84400
N450        N  0.34383470  0.66305035  0.50468076    -0.76300
C451        C  0.31559649  0.63772147  0.50237552     0.84500
N452        N  0.29060219  0.64080249  0.50169875    -0.78000
C453        C  0.16129028  0.81294462  0.50228359     0.82000
N454        N  0.13281392  0.80907844  0.50296310    -0.76300
C455        C  0.12924485  0.83399416  0.50294989     0.84400
N456        N  0.15420179  0.86278087  0.50216949    -0.76300
C457        C  0.18267237  0.86664637  0.50147008     0.84500
N458        N  0.18617858  0.84171592  0.50151142    -0.78000
C459        C  0.08452897  0.60993679  0.34389505     0.82000
N460        N  0.09896671  0.62367970  0.38301664    -0.76300
C461        C  0.12804273  0.64785150  0.38060150     0.84400
N462        N  0.14259556  0.65888296  0.33849463    -0.76300
C463        C  0.12759353  0.64294454  0.63014302     0.84500
N464        N  0.09908223  0.61771596  0.63089050    -0.78000
In465      In  0.16950200  0.68388574  0.50370351     1.36900
C466        C  0.16863211  0.73617713  0.50285149     0.79300
O467        O  0.17036550  0.68363533  0.42513435    -0.59100
O468        O  0.13042121  0.65024894  0.46284521    -0.50000
C469        C  0.21881685  0.67844004  0.50233890     0.72000
O470        O  0.21965613  0.70314294  0.51276720    -0.44900
C471        C  0.14314319  0.65731931  0.58550438     0.76700
O472        O  0.19286705  0.73553145  0.49507810    -0.56700
O473        O  0.13217112  0.64553742  0.54729366    -0.46800
O474        O  0.14513323  0.71041541  0.51124716    -0.53200
C475        C  0.14344702  0.66106487  0.42377119     0.86900
O476        O  0.19296728  0.65658352  0.49222970    -0.55100
O477        O  0.16801450  0.68259452  0.58213213    -0.58300
C478        C  0.48835550  0.97143896  0.35709447     0.04900
C479        C  0.01033919  0.99822481  0.34079024    -0.11300
C480        C  0.01540724  0.52942678  0.33170143     0.02400
C481        C  0.48639865  0.52654330  0.33324379    -0.09800
C482        C  0.46008271  0.99816369  0.35060492     0.04900
C483        C  0.46100781  0.97178796  0.36255038    -0.09200
H484        H  0.03172584  0.99832172  0.33738177     0.10500
H485        H  0.48540673  0.54666987  0.32315381     0.08000
H486        H  0.44018629  0.95111620  0.37389889     0.07900
C487        C  0.05345011  0.58295641  0.34821752    -0.14700
C488        C  0.04438952  0.55839792  0.32090211    -0.29800
H489        H  0.03898774  0.58161719  0.37814995     0.14400
H490        H  0.05972547  0.55866156  0.61155913     0.14900
C491        C  0.16756508  0.76406295  0.50220169    -0.11500
C492        C  0.16509898  0.78661129  0.50211084    -0.13100
C493        C  0.26750626  0.67255370  0.50266969    -0.11500
C494        C  0.24533722  0.67533836  0.50229208    -0.13100
C495        C  0.07423811  0.82754627  0.50277231    -0.11500
C496        C  0.09912241  0.82998312  0.50305841    -0.13100
C497        C  0.40208106  0.74097397  0.50864284    -0.11500
C498        C  0.37702728  0.71826717  0.50813587    -0.13100
C499        C  0.50127093  0.93246839  0.33343131    -0.14700
C500        C  0.48808517  0.94238942  0.36490096    -0.29800
H501        H  0.01211977  0.94718638  0.70869513     0.14400
H502        H  0.47408541  0.92744450  0.39370099     0.14900
C503        C  0.20917033  0.89705036  0.49996231    -0.11500
C504        C  0.23199430  0.92216356  0.49845001    -0.13100
C505        C  0.31233381  0.60776403  0.50019227    -0.11500
C506        C  0.31073719  0.58311150  0.49809781    -0.13100
C507        C  0.43064856  0.99743916  0.35480035    -0.14700
C508        C  0.42158693  0.00877821  0.32115039    -0.29800
H509        H  0.41513867  0.98520899  0.38426606     0.14400
H510        H  0.43424832  0.51963005  0.61555379     0.14900
C511        C  0.38926704  0.50342205  0.65054357     0.82300
N512        N  0.37361167  0.49703165  0.94479509    -0.76300
C513        C  0.34947015  0.00092287  0.95200429     0.84400
N514        N  0.33567240  0.99987794  0.99400168    -0.76300
C515        C  0.34893093  0.00228329  0.70017637     0.84500
N516        N  0.37436936  0.49948646  0.69249747    -0.78000
In517      In  0.30907099  0.99890891  0.82988717     1.36900
C518        C  0.30767959  0.54677288  0.82220797     0.79300
O519        O  0.30914796  0.99818077  0.90820283    -0.59100
O520        O  0.34221816  0.49252663  0.86436664    -0.50000
C521        C  0.25843552  0.94400298  0.83010658     0.72000
O522        O  0.25827271  0.96860739  0.82443335    -0.44900
C523        C  0.33412603  0.00024469  0.74600770     0.76700
O524        O  0.28409065  0.52185062  0.81280054    -0.56700
O525        O  0.34343487  0.49510230  0.77841378    -0.46800
O526        O  0.33013879  0.54430983  0.83242628    -0.53200
C527        C  0.33115992  0.49393616  0.90367930     0.86900
O528        O  0.28435384  0.94729559  0.83547845    -0.55100
O529        O  0.30900578  0.99947028  0.75155256    -0.58300
C530        C  0.47838476  0.89096704  0.67928082     0.82000
N531        N  0.47858280  0.87662170  0.71866261    -0.76300
C532        C  0.48177554  0.85148975  0.71634231     0.84400
N533        N  0.48419305  0.84030400  0.67426399    -0.76300
C534        C  0.49133918  0.85372801  0.96359005     0.84500
N535        N  0.49421283  0.88194791  0.96276937    -0.78000
In536      In  0.48592766  0.81168220  0.83808754     1.36900
C537        C  0.04420760  0.81761204  0.83428482     0.79300
O538        O  0.48689188  0.81417373  0.75987132    -0.59100
O539        O  0.48042796  0.84650813  0.79880756    -0.50000
C540        C  0.43143103  0.76032007  0.83902744     0.72000
O541        O  0.45544131  0.76114846  0.82373742    -0.44900
C542        C  0.48952279  0.83826175  0.91950397     0.76700
O543        O  0.01929796  0.79346864  0.84498371    -0.56700
O544        O  0.49093683  0.85076327  0.88117473    -0.46800
O545        O  0.04189830  0.84045126  0.82396106    -0.53200
C546        C  0.48297959  0.83692233  0.75931859     0.86900
O547        O  0.43524990  0.78538149  0.85443804    -0.55100
O548        O  0.48628322  0.81180051  0.91657527    -0.58300
C549        C  0.29317483  0.66280199  0.82994687     0.82000
N550        N  0.32156394  0.68780226  0.83347667    -0.76300
C551        C  0.34636472  0.68431719  0.83313483     0.84400
N552        N  0.34275451  0.65584157  0.82927368    -0.76300
C553        C  0.31442302  0.63082705  0.82579488     0.84500
N554        N  0.28961803  0.63430225  0.82616779    -0.78000
C555        C  0.16025360  0.80524392  0.83492352     0.82000
N556        N  0.13187691  0.80150090  0.83519409    -0.76300
C557        C  0.12844863  0.82644089  0.83403199     0.84400
N558        N  0.15345469  0.85518639  0.83261560    -0.76300
C559        C  0.18186069  0.85891695  0.83231888     0.84500
N560        N  0.18524520  0.83393606  0.83346748    -0.78000
C561        C  0.08378643  0.60502229  0.67196394     0.82000
N562        N  0.09721821  0.61753305  0.71237086    -0.76300
C563        C  0.12600234  0.64229976  0.71197053     0.84400
N564        N  0.14110693  0.65512145  0.67075226    -0.76300
C565        C  0.13264849  0.63595009  0.96580524     0.84500
N566        N  0.10716654  0.60750197  0.96906005    -0.78000
In567      In  0.16762010  0.67608442  0.83624500     1.36900
C568        C  0.16650684  0.72805517  0.83726541     0.79300
O569        O  0.16843360  0.67554535  0.75795424    -0.59100
O570        O  0.12714293  0.64428912  0.79491641    -0.50000
C571        C  0.21766905  0.67171639  0.83161766     0.72000
O572        O  0.21852946  0.69679164  0.83893151    -0.44900
C573        C  0.14501846  0.65039673  0.91992137     0.76700
O574        O  0.19098171  0.72764757  0.83134927    -0.56700
O575        O  0.13420851  0.63661604  0.88268906    -0.46800
O576        O  0.14271832  0.70210674  0.84307224    -0.53200
C577        C  0.14088599  0.65445627  0.75598333     0.86900
O578        O  0.19141418  0.64896663  0.82587394    -0.55100
O579        O  0.16733432  0.67739123  0.91450123    -0.58300
C580        C  0.48699277  0.96947973  0.65436554     0.04900
C581        C  0.01182419  0.99771986  0.65665219    -0.11300
C582        C  0.01431595  0.52699984  0.64507818     0.02400
C583        C  0.48705442  0.52717569  0.65820935    -0.09800
C584        C  0.45952244  0.99676994  0.66993486     0.04900
C585        C  0.45993455  0.96918770  0.66786818    -0.09200
H586        H  0.03333960  0.99808168  0.65410341     0.10500
H587        H  0.48581474  0.54799944  0.65922941     0.08000
H588        H  0.43891081  0.94743992  0.67448432     0.07900
C589        C  0.05294996  0.57757197  0.67331762    -0.14700
C590        C  0.04386531  0.55618457  0.64014512    -0.29800
H591        H  0.03828509  0.57349474  0.70431462     0.14400
H592        H  0.04395485  0.56988188  0.96583666     0.14900
C593        C  0.16561468  0.75597352  0.83698098    -0.11500
C594        C  0.16372798  0.77880579  0.83618629    -0.13100
C595        C  0.26689170  0.66647042  0.83019413    -0.11500
C596        C  0.24458703  0.66913605  0.83050102    -0.13100
C597        C  0.07328446  0.81937858  0.83426902    -0.11500
C598        C  0.09836626  0.82236011  0.83423819    -0.13100
C599        C  0.40174110  0.73305666  0.83817659    -0.11500
C600        C  0.37647105  0.71073868  0.83638012    -0.13100
C601        C  0.47543975  0.91852455  0.68256131    -0.14700
C602        C  0.48766363  0.94064359  0.64956024    -0.29800
H603        H  0.01335879  0.94450195  0.96773496     0.14400
H604        H  0.50082439  0.93878170  0.62026524     0.14900
C605        C  0.20837313  0.88922195  0.83115049    -0.11500
C606        C  0.23108305  0.91435706  0.83051024    -0.13100
C607        C  0.31080141  0.60069450  0.82286125    -0.11500
C608        C  0.30889790  0.57585820  0.82181073    -0.13100
C609        C  0.43020170  0.99586108  0.67889930    -0.14700
C610        C  0.42190966  0.01128353  0.65110697    -0.29800
H611        H  0.41398930  0.97993776  0.70509512     0.14400
H612        H  0.43110678  0.50811407  0.94882611     0.14900
C613        C  0.88908564  0.00158460  0.98159749     0.82300
N614        N  0.87389336  0.00517459  0.27836386    -0.76300
C615        C  0.85057697  0.50552653  0.28570428     0.84400
N616        N  0.83568300  0.50382702  0.32698438    -0.76300
C617        C  0.84958120  0.49970148  0.03174126     0.84500
N618        N  0.87501555  0.00053693  0.02330636    -0.78000
In619      In  0.81109205  0.50004664  0.16079008     1.36900
C620        C  0.81357849  0.05656763  0.15500391     0.79300
O621        O  0.81009460  0.50004541  0.23927361    -0.59100
O622        O  0.84637582  0.00465318  0.19600260    -0.50000
C623        C  0.76081448  0.44455487  0.16364423     0.72000
O624        O  0.75992240  0.46903520  0.16524278    -0.44900
C625        C  0.83526309  0.49920561  0.07731128     0.76700
O626        O  0.78857566  0.03194971  0.16287141    -0.56700
O627        O  0.84549140  0.00026335  0.10853806    -0.46800
O628        O  0.83612132  0.05316725  0.14616966    -0.53200
C629        C  0.83311167  0.00339390  0.23462778     0.86900
O630        O  0.78726559  0.44827819  0.16088824    -0.55100
O631        O  0.81117825  0.50050085  0.08245142    -0.58300
C632        C  0.00017019  0.40138876  0.99815646     0.82000
N633        N  0.99802218  0.38729019  0.03914819    -0.76300
C634        C  0.99585949  0.35930790  0.03972227     0.84400
N635        N  0.99516016  0.34508332  0.99898800    -0.76300
C636        C  0.99759002  0.36343201  0.29045343     0.84500
N637        N  0.00096713  0.39186637  0.28948061    -0.78000
In638      In  0.99316328  0.32024429  0.16635555     1.36900
C639        C  0.54620426  0.32302167  0.17614019     0.79300
O640        O  0.99509007  0.32031310  0.08790349    -0.59100
O641        O  0.99321105  0.35665758  0.12257846    -0.50000
C642        C  0.93741536  0.27090050  0.16735077     0.72000
O643        O  0.96099985  0.26963470  0.15644220    -0.44900
C644        C  0.99616536  0.34784048  0.24666371     0.76700
O645        O  0.52143612  0.29881135  0.18711619    -0.56700
O646        O  0.99754278  0.35986205  0.20789977    -0.46800
O647        O  0.54353440  0.34562692  0.16559150    -0.53200
C648        C  0.99457549  0.34493529  0.08441352     0.86900
O649        O  0.94219349  0.29716584  0.17803431    -0.55100
O650        O  0.99320067  0.32149107  0.24461547    -0.58300
C651        C  0.79884722  0.17185771  0.16426939     0.82000
N652        N  0.82691367  0.19753043  0.16586510    -0.76300
C653        C  0.85228469  0.19502190  0.16478729     0.84400
N654        N  0.84959060  0.16687946  0.16210049    -0.76300
C655        C  0.82155126  0.14121272  0.16046553     0.84500
N656        N  0.79618353  0.14371484  0.16158809    -0.78000
C657        C  0.65934722  0.30572570  0.16832675     0.82000
N658        N  0.63159147  0.30354354  0.17080768    -0.76300
C659        C  0.62964830  0.32939813  0.17149413     0.84400
N660        N  0.65554714  0.35750156  0.16971012    -0.76300
C661        C  0.68335479  0.35973924  0.16724879     0.84500
N662        N  0.68523353  0.33382700  0.16657412    -0.78000
C663        C  0.59344873  0.09187881  0.01150166     0.82000
N664        N  0.60698984  0.10679484  0.05054748    -0.76300
C665        C  0.63149497  0.13575690  0.04822468     0.84400
N666        N  0.64308022  0.14974199  0.00613340    -0.76300
C667        C  0.63145960  0.13799232  0.30054342     0.84500
N668        N  0.60625892  0.10930376  0.30323993    -0.78000
In669      In  0.66914009  0.17751820  0.17141112     1.36900
C670        C  0.66483084  0.22783986  0.16903969     0.79300
O671        O  0.66879064  0.17754549  0.09285547    -0.59100
O672        O  0.63377424  0.13893019  0.13063242    -0.50000
C673        C  0.72104419  0.17650282  0.16896470     0.72000
O674        O  0.72030738  0.20079758  0.17567566    -0.44900
C675        C  0.64466387  0.15247899  0.25493938     0.76700
O676        O  0.68998134  0.22870642  0.16438596    -0.56700
O677        O  0.63317150  0.13957799  0.21755688    -0.46800
O678        O  0.64175311  0.20132040  0.17469233    -0.53200
C679        C  0.64510177  0.15128213  0.09148943     0.86900
O680        O  0.69545657  0.15278667  0.16370042    -0.55100
O681        O  0.66856654  0.17846829  0.24985811    -0.58300
C682        C  0.98959474  0.46995733  0.02292351     0.04900
C683        C  0.51383543  0.49504684  0.00776831    -0.11300
C684        C  0.51371586  0.02099496  0.00129480     0.02400
C685        C  0.98501136  0.02089486  0.99657151    -0.09800
C686        C  0.96037866  0.49557858  0.01541208     0.04900
C687        C  0.96181038  0.46947521  0.02727334    -0.09200
H688        H  0.53556650  0.49581927  0.00565824     0.10500
H689        H  0.98431068  0.04136851  0.98769844     0.08000
H690        H  0.94107331  0.44836040  0.03753022     0.07900
C691        C  0.56678917  0.06045703  0.01607021    -0.14700
C692        C  0.54232123  0.05044055  0.99010562    -0.29800
H693        H  0.56569579  0.04650474  0.04540048     0.14400
H694        H  0.54396851  0.07023722  0.29640372     0.14900
C695        C  0.66272730  0.25515410  0.16821577    -0.11500
C696        C  0.66126042  0.27827663  0.16800423    -0.13100
C697        C  0.77192970  0.17437419  0.16584961    -0.11500
C698        C  0.74893193  0.17578582  0.16734064    -0.13100
C699        C  0.57539348  0.32484797  0.17537892    -0.11500
C700        C  0.60016389  0.32695229  0.17391303    -0.13100
C701        C  0.90726076  0.24441072  0.16722165    -0.11500
C702        C  0.88200773  0.22206114  0.16639945    -0.13100
C703        C  0.00279195  0.43176335  0.99652845    -0.14700
C704        C  0.98996751  0.44116514  0.02946130    -0.29800
H705        H  0.51318580  0.44984495  0.30516486     0.14400
H706        H  0.97665503  0.42596823  0.05848102     0.14900
C707        C  0.71076742  0.38952031  0.16575759    -0.11500
C708        C  0.73366057  0.41460181  0.16477999    -0.13100
C709        C  0.81871353  0.11140516  0.15797839    -0.11500
C710        C  0.81629269  0.08634775  0.15633489    -0.13100
C711        C  0.93055591  0.49405334  0.01874949    -0.14700
C712        C  0.92132308  0.50502809  0.98478575    -0.29800
H713        H  0.91508355  0.48181382  0.04819502     0.14400
H714        H  0.93029296  0.01467027  0.28532642     0.14900
C715        C  0.88629056  0.00457825  0.31868612     0.82300
N716        N  0.87460720  0.00945269  0.60482061    -0.76300
C717        C  0.84997615  0.50757518  0.61673382     0.84400
N718        N  0.83633160  0.50542983  0.65927165    -0.76300
C719        C  0.84887244  0.50493460  0.36752842     0.84500
N720        N  0.87131785  0.00291974  0.35970514    -0.78000
In721      In  0.80824613  0.50412961  0.49539170     1.36900
C722        C  0.80863647  0.05880519  0.49049547     0.79300
O723        O  0.80876077  0.50395069  0.57387714    -0.59100
O724        O  0.84394106  0.00853430  0.52626301    -0.50000
C725        C  0.75794653  0.44857918  0.49743546     0.72000
O726        O  0.75747171  0.47278937  0.48922595    -0.44900
C727        C  0.83371836  0.50414363  0.41246291     0.76700
O728        O  0.78453779  0.03432185  0.50277247    -0.56700
O729        O  0.84035701  0.00128826  0.44324964    -0.46800
O730        O  0.83056651  0.05549486  0.47662949    -0.53200
C731        C  0.83169700  0.00661429  0.56599552     0.86900
O732        O  0.78397079  0.45260030  0.50441408    -0.55100
O733        O  0.80851957  0.50331297  0.41672829    -0.58300
C734        C  0.00107275  0.40625508  0.32947391     0.82000
N735        N  0.99826598  0.39224105  0.37095465    -0.76300
C736        C  0.99555262  0.36398471  0.37223647     0.84400
N737        N  0.99501054  0.34954460  0.33188329    -0.76300
C738        C  0.98691940  0.35773544  0.62717579     0.84500
N739        N  0.98354428  0.38277079  0.62933813    -0.78000
In740      In  0.99162234  0.32329265  0.49824770     1.36900
C741        C  0.54426757  0.32761963  0.50842020     0.79300
O742        O  0.99198318  0.32355511  0.42003534    -0.59100
O743        O  0.99485895  0.36195042  0.45532212    -0.50000
C744        C  0.93652586  0.27308020  0.49687353     0.72000
O745        O  0.96069398  0.27195052  0.49242364    -0.44900
C746        C  0.98919512  0.34550116  0.58167963     0.76700
O747        O  0.51915313  0.30260349  0.51185944    -0.56700
O748        O  0.98992446  0.35852512  0.54423559    -0.46800
O749        O  0.54220459  0.35138947  0.50585167    -0.53200
C750        C  0.99396344  0.34941819  0.41695358     0.86900
O751        O  0.94044180  0.29961009  0.50201665    -0.55100
O752        O  0.99008884  0.32111312  0.57671787    -0.58300
C753        C  0.79750772  0.17615060  0.50158202     0.82000
N754        N  0.82609433  0.20127108  0.50050105    -0.76300
C755        C  0.85084924  0.19768627  0.49714682     0.84400
N756        N  0.84698422  0.16904932  0.49490942    -0.76300
C757        C  0.81841546  0.14399579  0.49597407     0.84500
N758        N  0.79371221  0.14755671  0.49929596    -0.78000
C759        C  0.65697844  0.30953686  0.50193264     0.82000
N760        N  0.62915322  0.30722419  0.50366738    -0.76300
C761        C  0.62712253  0.33304042  0.50447030     0.84400
N762        N  0.65292550  0.36117943  0.50349993    -0.76300
C763        C  0.68076724  0.36355213  0.50172169     0.84500
N764        N  0.68278055  0.33771359  0.50096118    -0.78000
C765        C  0.59475889  0.09518322  0.34521958     0.82000
N766        N  0.60836227  0.10985528  0.38434158    -0.76300
C767        C  0.63302898  0.13870913  0.38210046     0.84400
N768        N  0.64472729  0.15276837  0.34010416    -0.76300
C769        C  0.62603392  0.14266889  0.63230003     0.84500
N770        N  0.59760082  0.11730061  0.63343227    -0.78000
In771      In  0.66818769  0.18187868  0.50539143     1.36900
C772        C  0.66350767  0.23214968  0.50279179     0.79300
O773        O  0.66822867  0.18164573  0.42688011    -0.59100
O774        O  0.63543203  0.14161552  0.46437185    -0.50000
C775        C  0.72010468  0.18130789  0.50683479     0.72000
O776        O  0.71921827  0.20572389  0.51061890    -0.44900
C777        C  0.64134990  0.15685010  0.58748415     0.76700
O778        O  0.68837843  0.23289284  0.49441111    -0.56700
O779        O  0.62848895  0.14700076  0.54968885    -0.46800
O780        O  0.64098958  0.20585577  0.51229747    -0.53200
C781        C  0.64606431  0.15445551  0.42536003     0.86900
O782        O  0.69459167  0.15719248  0.50292358    -0.55100
O783        O  0.66811435  0.17975310  0.58355734    -0.58300
C784        C  0.98899334  0.47459816  0.35061131     0.04900
C785        C  0.51560766  0.50154205  0.34471207    -0.11300
C786        C  0.51500073  0.02541794  0.33302466     0.02400
C787        C  0.98216795  0.02483647  0.33466441    -0.09800
C788        C  0.96084217  0.50186751  0.35243275     0.04900
C789        C  0.96182419  0.47495134  0.35978004    -0.09200
H790        H  0.53716116  0.50193954  0.34229822     0.10500
H791        H  0.98173729  0.04565554  0.32722587     0.08000
H792        H  0.94113155  0.45393933  0.37046311     0.07900
C793        C  0.56766530  0.06418008  0.34943477    -0.14700
C794        C  0.54372348  0.05470906  0.32250971    -0.29800
H795        H  0.56588455  0.05001347  0.37893415     0.14400
H796        H  0.55943745  0.05709424  0.61591459     0.14900
C797        C  0.66104045  0.25929334  0.50182174    -0.11500
C798        C  0.65911724  0.28217981  0.50156324    -0.13100
C799        C  0.77115134  0.17958289  0.50469862    -0.11500
C800        C  0.74813327  0.18093412  0.50637183    -0.13100
C801        C  0.57319192  0.32900800  0.50735843    -0.11500
C802        C  0.59770980  0.33063292  0.50616922    -0.13100
C803        C  0.90661299  0.24620379  0.49629592    -0.11500
C804        C  0.88114403  0.22409109  0.49640103    -0.13100
C805        C  0.00410154  0.43683531  0.32683245    -0.14700
C806        C  0.98894208  0.44543993  0.35682373    -0.29800
H807        H  0.47135946  0.42775374  0.71933449     0.14400
H808        H  0.97387433  0.42943127  0.38391530     0.14900
C809        C  0.70805582  0.39341913  0.50030023    -0.11500
C810        C  0.73082293  0.41859701  0.49891797    -0.13100
C811        C  0.81430332  0.11372540  0.49391183    -0.11500
C812        C  0.81118037  0.08841798  0.49236114    -0.13100
C813        C  0.93122505  0.50079250  0.35721639    -0.14700
C814        C  0.92237616  0.51274925  0.32408252    -0.29800
H815        H  0.91530791  0.48739219  0.38563619     0.14400
H816        H  0.93352960  0.02345280  0.60879587     0.14900
C817        C  0.88826708  0.00807741  0.64324387     0.82300
N818        N  0.87556552  0.00127649  0.94186604    -0.76300
C819        C  0.85051670  0.50172205  0.95005284     0.84400
N820        N  0.83634970  0.50004264  0.99199440    -0.76300
C821        C  0.85049859  0.50551902  0.69825129     0.84500
N822        N  0.87403402  0.00450149  0.68570227    -0.78000
In823      In  0.81070171  0.50104321  0.82817315     1.36900
C824        C  0.80992839  0.05175660  0.82014799     0.79300
O825        O  0.81025049  0.49903973  0.90621868    -0.59100
O826        O  0.84435839  0.99754032  0.86092589    -0.50000
C827        C  0.76069077  0.44546425  0.83242454     0.72000
O828        O  0.76013698  0.46953720  0.84238192    -0.44900
C829        C  0.83621355  0.50378329  0.74429399     0.76700
O830        O  0.78509431  0.02658980  0.81870489    -0.56700
O831        O  0.84412464  0.99934611  0.77277275    -0.46800
O832        O  0.83334350  0.04946932  0.82244226    -0.53200
C833        C  0.83327173  0.99863664  0.90034445     0.86900
O834        O  0.78671335  0.44960188  0.82107622    -0.55100
O835        O  0.81106344  0.50285223  0.75013454    -0.58300
C836        C  0.98032754  0.39382141  0.67105524     0.82000
N837        N  0.98072943  0.37984205  0.71068349    -0.76300
C838        C  0.98462814  0.35514976  0.70894885     0.84400
N839        N  0.98755664  0.34396675  0.66709041    -0.76300
C840        C  0.99696324  0.35905974  0.95788340     0.84500
N841        N  0.99981636  0.38728576  0.95776814    -0.78000
In842      In  0.98863973  0.31622485  0.83179104     1.36900
C843        C  0.54639816  0.32007666  0.83681853     0.79300
O844        O  0.99103015  0.31908681  0.75355687    -0.59100
O845        O  0.98280995  0.35058610  0.79162986    -0.50000
C846        C  0.93353661  0.26573925  0.83162735     0.72000
O847        O  0.95747443  0.26582645  0.81821522    -0.44900
C848        C  0.99450995  0.34362334  0.91345627     0.76700
O849        O  0.52228807  0.29589892  0.85012989    -0.56700
O850        O  0.99615595  0.35634695  0.87521090    -0.46800
O851        O  0.54288793  0.34205471  0.82557597    -0.53200
C852        C  0.98613202  0.34116880  0.75237363     0.86900
O853        O  0.93768927  0.29110631  0.84623233    -0.55100
O854        O  0.98994825  0.31667930  0.91024170    -0.58300
C855        C  0.79514125  0.16712643  0.82409471     0.82000
N856        N  0.82339999  0.19257040  0.82581884    -0.76300
C857        C  0.84857504  0.18968154  0.82442751     0.84400
N858        N  0.84544250  0.16135493  0.82153618    -0.76300
C859        C  0.81720847  0.13594459  0.81987714     0.84500
N860        N  0.79208343  0.13883851  0.82125504    -0.78000
C861        C  0.66138461  0.30638143  0.83387468     0.82000
N862        N  0.63332453  0.30337951  0.83370497    -0.76300
C863        C  0.63061736  0.32876084  0.83297642     0.84400
N864        N  0.65600881  0.35720964  0.83256079    -0.76300
C865        C  0.68410940  0.36024167  0.83279284     0.84500
N866        N  0.68678855  0.33481041  0.83346999    -0.78000
C867        C  0.58281197  0.10435544  0.67468426     0.82000
N868        N  0.59659625  0.11682775  0.71486003    -0.76300
C869        C  0.62524685  0.14180098  0.71405042     0.84400
N870        N  0.63994097  0.15477638  0.67267325    -0.76300
C871        C  0.62989812  0.13481996  0.96656328     0.84500
N872        N  0.60486896  0.10594915  0.96938289    -0.78000
In873      In  0.66714716  0.17612257  0.83778223     1.36900
C874        C  0.66619636  0.22827941  0.83711331     0.79300
O875        O  0.66727618  0.17646340  0.75955267    -0.59100
O876        O  0.62723270  0.14295826  0.79682491    -0.50000
C877        C  0.71792502  0.17296688  0.83233198     0.72000
O878        O  0.71770905  0.19674283  0.84533565    -0.44900
C879        C  0.64309994  0.14952756  0.92090013     0.76700
O880        O  0.69025165  0.22748678  0.82830432    -0.56700
O881        O  0.63284336  0.13617215  0.88319322    -0.46800
O882        O  0.64273820  0.20263117  0.84666341    -0.53200
C883        C  0.64030376  0.15412890  0.75783352     0.86900
O884        O  0.69227577  0.15066149  0.82240953    -0.55100
O885        O  0.66574906  0.17641952  0.91622465    -0.58300
C886        C  0.98623579  0.47101620  0.64594489     0.04900
C887        C  0.51621022  0.50185520  0.64328797    -0.11300
C888        C  0.51417159  0.02540147  0.64979831     0.02400
C889        C  0.98365861  0.02474610  0.65617935    -0.09800
C890        C  0.95990641  0.49875394  0.66661541     0.04900
C891        C  0.95961454  0.47092821  0.66163133    -0.09200
H892        H  0.53767483  0.50309623  0.63332351     0.10500
H893        H  0.98345681  0.04611362  0.65522153     0.08000
H894        H  0.93846978  0.44929197  0.66779476     0.07900
C895        C  0.55217031  0.07664719  0.67650605    -0.14700
C896        C  0.54345140  0.05479757  0.64411218    -0.29800
H897        H  0.53745097  0.07274815  0.70731339     0.14400
H898        H  0.54199371  0.06579316  0.96425557     0.14900
C899        C  0.66544923  0.25630050  0.83608110    -0.11500
C900        C  0.66405854  0.27942898  0.83502619    -0.13100
C901        C  0.76835762  0.16991507  0.82650971    -0.11500
C902        C  0.74540805  0.17143893  0.82904821    -0.13100
C903        C  0.57583614  0.32263195  0.83489060    -0.11500
C904        C  0.60085590  0.32544317  0.83366426    -0.13100
C905        C  0.90365361  0.23885830  0.82963489    -0.11500
C906        C  0.87848515  0.21647220  0.82718774    -0.13100
C907        C  0.97668875  0.42098139  0.67408338    -0.14700
C908        C  0.98645409  0.44204316  0.63970147    -0.29800
H909        H  0.51429301  0.44410002  0.97198607     0.14400
H910        H  0.99792985  0.43962936  0.60857895     0.14900
C911        C  0.71097232  0.39032485  0.83307578    -0.11500
C912        C  0.73361214  0.41552765  0.83326459    -0.13100
C913        C  0.81386251  0.10594894  0.81875242    -0.11500
C914        C  0.81157065  0.08097434  0.81912202    -0.13100
C915        C  0.93103806  0.49843839  0.67658578    -0.14700
C916        C  0.92198038  0.51229424  0.64706286    -0.29800
H917        H  0.91579181  0.48418891  0.70502922     0.14400
H918        H  0.93358967  0.01316611  0.94772124     0.14900
C919        C  0.89125301  0.50282107  0.98758611     0.82300
N920        N  0.87876517  0.50870130  0.28521433    -0.76300
C921        C  0.84650970  0.00377530  0.27877273     0.84400
N922        N  0.83166878  0.00234362  0.31996992    -0.76300
C923        C  0.84764272  0.99923438  0.02548831     0.84500
N924        N  0.87688218  0.50087211  0.02934493    -0.78000
In925      In  0.80902586  0.00151249  0.15387162     1.36900
C926        C  0.81399886  0.55415035  0.15874484     0.79300
O927        O  0.80746679  0.00139004  0.23214254    -0.59100
O928        O  0.84948780  0.50502819  0.20284132    -0.50000
C929        C  0.75859754  0.94601276  0.15726957     0.72000
O930        O  0.75826626  0.96996231  0.14625669    -0.44900
C931        C  0.83341508  0.99940629  0.07093324     0.76700
O932        O  0.78901912  0.52911073  0.16343254    -0.56700
O933        O  0.84660538  0.49800849  0.11462565    -0.46800
O934        O  0.83735933  0.55162831  0.15474879    -0.53200
C935        C  0.83634696  0.50354835  0.24160148     0.86900
O936        O  0.78443289  0.95038193  0.16658154    -0.55100
O937        O  0.80856188  0.99923851  0.07558157    -0.58300
C938        C  0.99915303  0.90009184  0.00115826     0.82000
N939        N  0.99679832  0.88620178  0.04247352    -0.76300
C940        C  0.99473345  0.85824162  0.04353007     0.84400
N941        N  0.99433864  0.84388579  0.00311920    -0.76300
C942        C  0.99379442  0.86075435  0.29452368     0.84500
N943        N  0.99517920  0.88829024  0.29325671    -0.78000
In944      In  0.99186053  0.81896383  0.16973301     1.36900
C945        C  0.54554273  0.82044113  0.17033647     0.79300
O946        O  0.99356725  0.81913858  0.09156577    -0.59100
O947        O  0.99235629  0.85581094  0.12637197    -0.50000
C948        C  0.93637769  0.76889208  0.16784312     0.72000
O949        O  0.96051628  0.76773333  0.16341456    -0.44900
C950        C  0.99310488  0.84539876  0.25073374     0.76700
O951        O  0.52049662  0.79535485  0.17246800    -0.56700
O952        O  0.99466707  0.85756455  0.21207771    -0.46800
O953        O  0.54326862  0.84408111  0.16863085    -0.53200
C954        C  0.99340348  0.84394754  0.08820683     0.86900
O955        O  0.94042286  0.79538822  0.17425162    -0.55100
O956        O  0.99076518  0.81931568  0.24839538    -0.58300
C957        C  0.79815386  0.66875298  0.16143748     0.82000
N958        N  0.82621253  0.69455877  0.16197199    -0.76300
C959        C  0.85168830  0.69221576  0.16119898     0.84400
N960        N  0.84904803  0.66405293  0.15990355    -0.76300
C961        C  0.82099271  0.63827225  0.15940181     0.84500
N962        N  0.79557402  0.64064130  0.16024904    -0.78000
C963        C  0.66051779  0.80583007  0.16351321     0.82000
N964        N  0.63229796  0.80259496  0.16607078    -0.76300
C965        C  0.62930310  0.82784168  0.16678755     0.84400
N966        N  0.65456039  0.85638348  0.16492084    -0.76300
C967        C  0.68282852  0.85975764  0.16234255     0.84500
N968        N  0.68581381  0.83444507  0.16162477    -0.78000
C969        C  0.59201482  0.59220171  0.00578119     0.82000
N970        N  0.60628377  0.60654884  0.04472406    -0.76300
C971        C  0.63152913  0.63499249  0.04233481     0.84400
N972        N  0.64300744  0.64903320  0.00033295    -0.76300
C973        C  0.63224783  0.63942595  0.29523012     0.84500
N974        N  0.60630173  0.61127570  0.29863383    -0.78000
In975      In  0.66987777  0.67695378  0.16502608     1.36900
C976        C  0.66676552  0.72816506  0.16363130     0.79300
O977        O  0.66943647  0.67650722  0.08649473    -0.59100
O978        O  0.63479787  0.63782037  0.12461127    -0.50000
C979        C  0.72076764  0.67406831  0.16239210     0.72000
O980        O  0.72112651  0.69914953  0.16040769    -0.44900
C981        C  0.64530046  0.65340393  0.24924333     0.76700
O982        O  0.69164847  0.72858583  0.16564972    -0.56700
O983        O  0.63220135  0.64144975  0.21230936    -0.46800
O984        O  0.64343534  0.70170028  0.16225946    -0.53200
C985        C  0.64576031  0.65021933  0.08539450     0.86900
O986        O  0.69456265  0.65043393  0.16507000    -0.55100
O987        O  0.67074761  0.67783577  0.24334551    -0.58300
C988        C  0.98705722  0.96826243  0.02102507     0.04900
C989        C  0.51414182  0.99409994  0.01210318    -0.11300
C990        C  0.51254745  0.52118825  0.99524729     0.02400
C991        C  0.98732561  0.52285120  0.00155552    -0.09800
C992        C  0.95792711  0.99381936  0.01068676     0.04900
C993        C  0.95925170  0.96785694  0.02408834    -0.09200
H994        H  0.53556709  0.99423927  0.00996902     0.10500
H995        H  0.98647478  0.54338708  0.99368314     0.08000
H996        H  0.93846448  0.94692978  0.03467761     0.07900
C997        C  0.56494437  0.56115841  0.01056830    -0.14700
C998        C  0.54086264  0.55074986  0.98366929    -0.29800
H999        H  0.56343692  0.54753494  0.04064086     0.14400
H1000       H  0.54296031  0.57245071  0.29442749     0.14900
C1001       C  0.66511681  0.75582323  0.16312905    -0.11500
C1002       C  0.66344500  0.77888174  0.16308104    -0.13100
C1003       C  0.77115152  0.67108095  0.16193865    -0.11500
C1004       C  0.74820086  0.67253618  0.16203392    -0.13100
C1005       C  0.57461530  0.82212223  0.16981563    -0.11500
C1006       C  0.59943392  0.82440663  0.16885688    -0.13100
C1007       C  0.90646301  0.74204685  0.16526342    -0.11500
C1008       C  0.88140319  0.71944317  0.16297497    -0.13100
C1009       C  0.00181003  0.93046779  0.99858437    -0.14700
C1010       C  0.98743495  0.93956027  0.02929949    -0.29800
H1011       H  0.51241892  0.94609503  0.30209797     0.14400
H1012       H  0.97301497  0.92416702  0.05742478     0.14900
C1013       C  0.70948241  0.89017417  0.16041699    -0.11500
C1014       C  0.73165008  0.91582188  0.15891687    -0.13100
C1015       C  0.81814150  0.60847340  0.15856773    -0.11500
C1016       C  0.81587250  0.58349793  0.15835110    -0.13100
C1017       C  0.92814037  0.99250836  0.01329716    -0.14700
C1018       C  0.91913902  0.00361782  0.97912510    -0.29800
H1019       H  0.91247241  0.98038062  0.04266383     0.14400
H1020       H  0.93715788  0.52334443  0.29330053     0.14900
C1021       C  0.89185491  0.50945745  0.32553963     0.82300
N1022       N  0.87787026  0.51011847  0.61339649    -0.76300
C1023       C  0.84669034  0.00688538  0.60840778     0.84400
N1024       N  0.83258734  0.00353045  0.65097950    -0.76300
C1025       C  0.84413937  0.00198613  0.36053758     0.84500
N1026       N  0.87680691  0.50748456  0.36661237    -0.78000
In1027     In  0.80486361  0.00428777  0.48778137     1.36900
C1028       C  0.81053061  0.55806409  0.49769952     0.79300
O1029       O  0.80560460  0.00384430  0.56606298    -0.59100
O1030       O  0.84676150  0.50758321  0.53456105    -0.50000
C1031       C  0.75397523  0.94941740  0.49010180     0.72000
O1032       O  0.75437334  0.97348135  0.47763758    -0.44900
C1033       C  0.82934696  0.00200184  0.40537180     0.76700
O1034       O  0.78609364  0.53298158  0.50597959    -0.56700
O1035       O  0.84542402  0.50467710  0.45021207    -0.46800
O1036       O  0.83362614  0.55567408  0.48854573    -0.53200
C1037       C  0.83471941  0.50643031  0.57415076     0.86900
O1038       O  0.77931337  0.95334512  0.50130324    -0.55100
O1039       O  0.80530791  0.00344779  0.40933627    -0.58300
C1040       C  0.99499927  0.90272230  0.33303966     0.82000
N1041       N  0.99398269  0.88973422  0.37465170    -0.76300
C1042       C  0.99321117  0.86238907  0.37627175     0.84400
N1043       N  0.99291548  0.84782967  0.33610245    -0.76300
C1044       C  0.99192798  0.86033962  0.63227186     0.84500
N1045       N  0.99421461  0.88834635  0.63523477    -0.78000
In1046     In  0.99153941  0.82356911  0.50306822     1.36900
C1047       C  0.54060760  0.82218252  0.50492256     0.79300
O1048       O  0.99172300  0.82328603  0.42480166    -0.59100
O1049       O  0.99381134  0.86153221  0.45934614    -0.50000
C1050       C  0.93669689  0.77289704  0.50275977     0.72000
O1051       O  0.96108626  0.77216491  0.49929886    -0.44900
C1052       C  0.99097537  0.84680714  0.58653557     0.76700
O1053       O  0.51580434  0.79700330  0.50290202    -0.56700
O1054       O  0.99196933  0.86006694  0.54916711    -0.46800
O1055       O  0.53796268  0.84563424  0.50764252    -0.53200
C1056       C  0.99291081  0.84874035  0.42121949     0.86900
O1057       O  0.94018782  0.79936252  0.50661800    -0.55100
O1058       O  0.98970779  0.82135911  0.58137510    -0.58300
C1059       C  0.79859499  0.67544509  0.49754218     0.82000
N1060       N  0.82715754  0.70037279  0.49906134    -0.76300
C1061       C  0.85172440  0.69658819  0.49989461     0.84400
N1062       N  0.84770204  0.66784831  0.49935469    -0.76300
C1063       C  0.81912539  0.64290039  0.49791611     0.84500
N1064       N  0.79458697  0.64671377  0.49698387    -0.78000
C1065       C  0.65702922  0.80984867  0.49910938     0.82000
N1066       N  0.62852779  0.80592924  0.50113274    -0.76300
C1067       C  0.62489128  0.83078638  0.50073924     0.84400
N1068       N  0.64976831  0.85957005  0.49824403    -0.76300
C1069       C  0.67826957  0.86354396  0.49617559     0.84500
N1070       N  0.68190729  0.83867244  0.49662953    -0.78000
C1071       C  0.59515999  0.59742123  0.34087866     0.82000
N1072       N  0.60984363  0.61179197  0.37948019    -0.76300
C1073       C  0.63520660  0.64012372  0.37665202     0.84400
N1074       N  0.64657666  0.65394399  0.33438971    -0.76300
C1075       C  0.62707327  0.64566865  0.62680627     0.84500
N1076       N  0.59841444  0.62060919  0.62792804    -0.78000
In1077     In  0.67055401  0.68364234  0.49975280     1.36900
C1078       C  0.66602716  0.73393930  0.49964020     0.79300
O1079       O  0.67041612  0.68330840  0.42120512    -0.59100
O1080       O  0.63903823  0.64262744  0.45883319    -0.50000
C1081       C  0.72230166  0.68258341  0.49826185     0.72000
O1082       O  0.72159950  0.70633057  0.48744012    -0.44900
C1083       C  0.64261816  0.65958944  0.58192202     0.76700
O1084       O  0.69025979  0.73457597  0.50920449    -0.56700
O1085       O  0.62997690  0.64966260  0.54396622    -0.46800
O1086       O  0.64415900  0.70777540  0.49012283    -0.53200
C1087       C  0.64887843  0.65577087  0.41977154     0.86900
O1088       O  0.69679324  0.65955421  0.50983659    -0.55100
O1089       O  0.66955745  0.68214853  0.57808478    -0.58300
C1090       C  0.98330163  0.97111341  0.35467885     0.04900
C1091       C  0.51538677  0.99842305  0.34289215    -0.11300
C1092       C  0.51463660  0.52785615  0.33231727     0.02400
C1093       C  0.98784997  0.52923784  0.33937094    -0.09800
C1094       C  0.95514369  0.99801079  0.34956043     0.04900
C1095       C  0.95600587  0.97150840  0.36086284    -0.09200
H1096       H  0.53676711  0.99848905  0.33986153     0.10500
H1097       H  0.98744083  0.55034936  0.33513595     0.08000
H1098       H  0.93516665  0.95077532  0.37196022     0.07900
C1099       C  0.56772606  0.56673435  0.34613046    -0.14700
C1100       C  0.54315911  0.55716731  0.32053042    -0.29800
H1101       H  0.56644129  0.55280847  0.37563157     0.14400
H1102       H  0.55855877  0.56140248  0.60874657     0.14900
C1103       C  0.66344497  0.76101370  0.49957396    -0.11500
C1104       C  0.66079173  0.78346662  0.49940922    -0.13100
C1105       C  0.77254708  0.67936583  0.49721089    -0.11500
C1106       C  0.75003109  0.68159746  0.49743898    -0.13100
C1107       C  0.56982214  0.82415007  0.50394178    -0.11500
C1108       C  0.59476920  0.82672441  0.50268324    -0.13100
C1109       C  0.90705954  0.74560067  0.50215913    -0.11500
C1110       C  0.88192949  0.72301910  0.50130179    -0.13100
C1111       C  0.99676389  0.93267983  0.32992311    -0.14700
C1112       C  0.98311248  0.94200288  0.36157029    -0.29800
H1113       H  0.46491983  0.92175081  0.71410123     0.14400
H1114       H  0.96934394  0.92682343  0.39030511     0.14900
C1115       C  0.70453177  0.89406737  0.49348501    -0.11500
C1116       C  0.72675981  0.91958442  0.49156849    -0.13100
C1117       C  0.81486903  0.61249567  0.49806580    -0.11500
C1118       C  0.81214895  0.58731509  0.49826473    -0.13100
C1119       C  0.92571042  0.99719920  0.35297947    -0.14700
C1120       C  0.91621092  0.00656191  0.31732544    -0.29800
H1121       H  0.91066384  0.98648945  0.38348988     0.14400
H1122       H  0.93609803  0.52369532  0.61601029     0.14900
C1123       C  0.89192467  0.50984347  0.65205596     0.82300
N1124       N  0.87810106  0.50346581  0.94804610    -0.76300
C1125       C  0.84794737  0.99952449  0.94365414     0.84400
N1126       N  0.83411125  0.99869123  0.98557376    -0.76300
C1127       C  0.84632612  0.00247214  0.68977456     0.84500
N1128       N  0.87816096  0.50744477  0.69451358    -0.78000
In1129     In  0.80736419  0.99782079  0.82103799     1.36900
C1130       C  0.81199682  0.55440012  0.82843829     0.79300
O1131       O  0.80870562  0.99899234  0.89944762    -0.59100
O1132       O  0.84888677  0.50351784  0.86748391    -0.50000
C1133       C  0.75596109  0.94325957  0.82608311     0.72000
O1134       O  0.75638274  0.96811402  0.83306579    -0.44900
C1135       C  0.83189843  0.00002690  0.73612944     0.76700
O1136       O  0.78890269  0.52961823  0.81709658    -0.56700
O1137       O  0.84826440  0.50325906  0.78122463    -0.46800
O1138       O  0.83428444  0.55200679  0.83983532    -0.53200
C1139       C  0.83617127  0.50146042  0.90691150     0.86900
O1140       O  0.78167663  0.94609499  0.81648460    -0.55100
O1141       O  0.80670659  0.99897377  0.74266254    -0.58300
C1142       C  0.99657262  0.90173030  0.67719219     0.82000
N1143       N  0.99641537  0.88691761  0.71618369    -0.76300
C1144       C  0.99355113  0.85869619  0.71369545     0.84400
N1145       N  0.99151530  0.84547407  0.67165118    -0.76300
C1146       C  0.99632880  0.85764798  0.96182393     0.84500
N1147       N  0.99912545  0.88582922  0.96111707    -0.78000
In1148     In  0.99102349  0.81589260  0.83621257     1.36900
C1149       C  0.54031682  0.81591501  0.83402128     0.79300
O1150       O  0.99143583  0.81738352  0.75778424    -0.59100
O1151       O  0.99239720  0.85407639  0.79593065    -0.50000
C1152       C  0.93475740  0.76696917  0.83576488     0.72000
O1153       O  0.95820668  0.76546763  0.82459847    -0.44900
C1154       C  0.99451697  0.84224191  0.91774010     0.76700
O1155       O  0.51617343  0.79149580  0.84653217    -0.56700
O1156       O  0.99560554  0.85466532  0.87953051    -0.46800
O1157       O  0.53671009  0.83793167  0.82341365    -0.53200
C1158       C  0.99241851  0.84286745  0.75672142     0.86900
O1159       O  0.93995906  0.79317999  0.84779312    -0.55100
O1160       O  0.99137488  0.81582858  0.91469474    -0.58300
C1161       C  0.79568908  0.66897261  0.82520477     0.82000
N1162       N  0.82381281  0.69459165  0.82739947    -0.76300
C1163       C  0.84899114  0.69187057  0.82953705     0.84400
N1164       N  0.84598803  0.66356583  0.82957328    -0.76300
C1165       C  0.81792789  0.63799766  0.82734269     0.84500
N1166       N  0.79278808  0.64070073  0.82524350    -0.78000
C1167       C  0.65698997  0.80484649  0.83276469     0.82000
N1168       N  0.62865156  0.80115444  0.83220907    -0.76300
C1169       C  0.62524720  0.82612982  0.83145663     0.84400
N1170       N  0.65025381  0.85487699  0.83122578    -0.76300
C1171       C  0.67863488  0.85857521  0.83171623     0.84500
N1172       N  0.68196879  0.83354673  0.83249835    -0.78000
C1173       C  0.58366150  0.60760230  0.66919066     0.82000
N1174       N  0.59774355  0.61956093  0.70926579    -0.76300
C1175       C  0.62652742  0.64421705  0.70852749     0.84400
N1176       N  0.64120872  0.65738983  0.66721041    -0.76300
C1177       C  0.62913075  0.63467750  0.96088600     0.84500
N1178       N  0.60343306  0.60627789  0.96366443    -0.78000
In1179     In  0.66707393  0.67693565  0.83338103     1.36900
C1180       C  0.66436889  0.72815795  0.83518218     0.79300
O1181       O  0.66771873  0.67928034  0.75513893    -0.59100
O1182       O  0.62863285  0.64329196  0.79092473    -0.50000
C1183       C  0.71819931  0.67433915  0.82865167     0.72000
O1184       O  0.71803011  0.69866603  0.83803073    -0.44900
C1185       C  0.64242640  0.64962428  0.91553422     0.76700
O1186       O  0.68900764  0.72835721  0.82711233    -0.56700
O1187       O  0.63231497  0.63656873  0.87759274    -0.46800
O1188       O  0.64122602  0.70198746  0.84308925    -0.53200
C1189       C  0.64142206  0.65596827  0.75250644     0.86900
O1190       O  0.69235930  0.65125800  0.82190084    -0.55100
O1191       O  0.66513801  0.67653244  0.91150160    -0.58300
C1192       C  0.98414576  0.96944475  0.65858208     0.04900
C1193       C  0.51382238  0.99760813  0.64427900    -0.11300
C1194       C  0.51493013  0.52888084  0.64606556     0.02400
C1195       C  0.98742396  0.52673989  0.65930692    -0.09800
C1196       C  0.95600050  0.99660992  0.66108929     0.04900
C1197       C  0.95640432  0.96908518  0.66174226    -0.09200
H1198       H  0.53478209  0.99791959  0.63427015     0.10500
H1199       H  0.98781213  0.54826046  0.66422586     0.08000
H1200       H  0.93504860  0.94729749  0.66415238     0.07900
C1201       C  0.55285960  0.58019019  0.67135724    -0.14700
C1202       C  0.54332243  0.55876646  0.63834749    -0.29800
H1203       H  0.53891017  0.57578265  0.70328767     0.14400
H1204       H  0.54068903  0.56559333  0.95676842     0.14900
C1205       C  0.66264412  0.75566828  0.83477921    -0.11500
C1206       C  0.66045801  0.77835399  0.83386548    -0.13100
C1207       C  0.76882189  0.67158093  0.82480419    -0.11500
C1208       C  0.74580735  0.67300478  0.82603667    -0.13100
C1209       C  0.56991119  0.81874497  0.83234993    -0.11500
C1210       C  0.59515362  0.82205702  0.83152556    -0.13100
C1211       C  0.90429594  0.74084003  0.83430883    -0.11500
C1212       C  0.87884235  0.71880004  0.83228029    -0.13100
C1213       C  0.99916330  0.93209808  0.68095927    -0.14700
C1214       C  0.98355011  0.94000571  0.65367343    -0.29800
H1215       H  0.50888680  0.94076476  0.96837933     0.14400
H1216       H  0.96807423  0.92348228  0.62930242     0.14900
C1217       C  0.70524092  0.88887947  0.83061410    -0.11500
C1218       C  0.72821144  0.91385973  0.82883286    -0.13100
C1219       C  0.81487551  0.60811957  0.82774389    -0.11500
C1220       C  0.81304665  0.58334881  0.82812405    -0.13100
C1221       C  0.92646396  0.99549678  0.66712227    -0.14700
C1222       C  0.91842286  0.01060233  0.63836271    -0.29800
H1223       H  0.91008227  0.98012180  0.69375665     0.14400
H1224       H  0.93565046  0.51469345  0.95335885     0.14900
loop_ 
_geom_bond_atom_site_label_1 
_geom_bond_atom_site_label_2 
_geom_bond_distance 
_geom_bond_site_symmetry_2 
_ccdc_geom_bond_type 
C1            N6   1.358   1_556  A
C1          N206   1.356       .  A
C1          C406   1.473       .  S
N2          C103   1.355       .  A
N2          C309   1.357       .  A
C3            N4   1.361       .  A
C3          N308   1.358       .  A
C3          C323   1.466       .  S
N4          C107   1.360       .  A
C5          N208   1.360   1_554  A
C5          N312   1.358       .  A
C5           C13   1.468       .  S
N6          C311   1.357       .  A
In7           O9   2.254       .  S
In7          O18   2.247       .  S
In7          O12   2.256       .  S
In7          O19   2.259       .  S
In7         O316   2.239       .  S
In7         O320   2.253       .  S
In7         O321   2.243       .  S
In7         O322   2.247       .  S
C8           O14   1.259       .  A
C8           O16   1.257       .  A
C8           C98   1.438       .  S
O9          C323   1.261       .  A
O10        In313   2.238       .  S
O10          C17   1.259       .  A
C11          O18   1.258       .  A
C11          O12   1.260       .  A
C11          C96   1.437       .  S
C13          O19   1.260       .  A
C13         O321   1.260       .  A
O14        In313   2.255       .  S
O15        In313   2.240       .  S
O15         C319   1.259       .  A
O16        In313   2.252       .  S
C17         C309   1.465       .  S
C17         O315   1.260   1_545  A
C20          N21   1.358       .  A
C20         N229   1.352   1_554  A
C20          C91   1.469       .  S
N21          C22   1.361       .  A
C22          N23   1.363       .  A
C22          C36   1.469       .  S
N23         C228   1.360   1_554  A
C24          N25   1.355       .  A
C24         N125   1.360       .  A
C24          C32   1.465       .  S
N25         C122   1.354       .  A
In26         O28   2.259       .  S
In26         O29   2.243       .  S
In26         O37   2.254       .  S
In26         O31   2.255       .  S
In26         O34   2.234       .  S
In26         O38   2.258       .  S
In26        O645   2.260       .  S
In26        O647   2.250       .  S
C27          O33   1.259       .  A
C27          O35   1.258       .  A
C27          C87   1.434       .  S
O28          C36   1.261       .  A
O29          C36   1.260       .  A
C30          O37   1.258       .  A
C30          O31   1.260       .  A
C30          C89   1.440       .  S
C32          O34   1.260       .  A
C32          O38   1.260       .  A
O33        In638   2.252   1_455  S
O35        In638   2.242   1_455  S
C39          N40   1.359       .  A
C39          N44   1.358       .  A
C39          C85   1.439       .  S
N40          C41   1.359       .  A
C41          N42   1.358       .  A
C41          C90   1.440       .  S
N42          C43   1.358       .  A
C43          N44   1.357       .  A
C43          C97   1.438       .  S
C45          N46   1.357       .  A
C45          N50   1.359       .  A
C45          C84   1.438       .  S
N46          C47   1.357       .  A
C47          N48   1.357       .  A
C47          C88   1.435       .  S
N48          C49   1.357       .  A
C49          N50   1.359       .  A
C49          C95   1.438       .  S
C51          N52   1.354       .  A
C51         N260   1.359   1_554  A
C51          C79   1.470       .  S
N52          C53   1.355       .  A
C53          N54   1.360       .  A
C53          C67   1.468       .  S
N54         C259   1.362   1_554  A
C55          N56   1.361       .  A
C55         N156   1.361       .  A
C55          C63   1.469       .  S
N56         C153   1.360       .  A
In57         O59   2.266       .  S
In57         O60   2.239       .  S
In57         O68   2.252       .  S
In57         O62   2.254       .  S
In57         O64   2.253       .  S
In57         O65   2.253       .  S
In57         O66   2.257       .  S
In57         O69   2.252       .  S
C58          O64   1.258       .  A
C58          O66   1.259       .  A
C58          C83   1.438       .  S
O59          C67   1.260       .  A
O60          C67   1.259       .  A
C61          O68   1.258       .  A
C61          O62   1.258       .  A
C61          C86   1.438       .  S
C63          O65   1.260       .  A
C63          O69   1.260       .  A
C70          C92   1.479       .  S
C70          C75   1.401       .  A
C70         C683   1.404       .  A
C71         C682   1.402   1_455  A
C71         C378   1.405       .  A
C71          H76   1.085       .  S
C72          C80   1.480       .  S
C72         C377   1.404   1_546  A
C72         C685   1.403   1_455  A
C73         C684   1.403       .  A
C73         C380   1.405   1_545  A
C73          H77   1.085   1_554  S
C74          C99   1.476       .  S
C74          C75   1.402       .  A
C74         C379   1.406   1_554  A
C75          H78   1.082       .  S
C79          C80   1.342   1_554  D
C79          H81   1.088       .  S
C80         H286   1.087       .  S
H82         C182   1.087       .  S
C83          C84   1.207       .  T
C85          C86   1.207       .  T
C87          C88   1.205       .  T
C89          C90   1.208       .  T
C91          C92   1.341       .  D
C91         H909   1.088   1_554  S
C92          H94   1.087       .  S
H93         C805   1.086       .  S
C95          C96   1.207       .  T
C97          C98   1.207       .  T
C99         C100   1.343   1_554  D
C99         H101   1.085       .  S
C100        C307   1.473       .  S
C100        H612   1.086       .  S
H102        C508   1.087       .  S
C103        N108   1.358       .  A
C103        C508   1.473       .  S
N104        C205   1.355       .  A
N104        C411   1.356       .  A
C105        N410   1.356       .  A
C105        N106   1.360       .  A
C105        C425   1.468       .  S
N106        C209   1.362       .  A
C107        N414   1.356       .  A
C107        C115   1.466       .  S
N108        C413   1.359       .  A
In109       O111   2.265       .  S
In109       O418   2.239       .  S
In109       O120   2.249       .  S
In109       O114   2.248       .  S
In109       O422   2.251       .  S
In109       O423   2.236       .  S
In109       O424   2.249       .  S
In109       O121   2.262       .  S
C110        O116   1.258       .  A
C110        O118   1.257       .  A
C110        C200   1.438       .  S
O111        C425   1.260       .  A
O112       In415   2.239       .  S
O112        C119   1.258       .  A
C113        O120   1.258       .  A
C113        O114   1.258       .  A
C113        C198   1.435       .  S
C115        O423   1.259       .  A
C115        O121   1.260       .  A
O116       In415   2.256       .  S
O117       In415   2.240       .  S
O117        C421   1.259       .  A
O118       In415   2.256       .  S
C119        C411   1.468       .  S
C119        O417   1.260       .  A
C122        N123   1.357       .  A
C122        C193   1.466       .  S
N123        C124   1.359       .  A
C124        N125   1.361       .  A
C124        C138   1.466       .  S
C126        N227   1.359       .  A
C126        N127   1.355       .  A
C126        C134   1.465       .  S
N127        C224   1.357       .  A
In128       O130   2.250       .  S
In128       O131   2.244       .  S
In128       O139   2.248       .  S
In128       O133   2.247       .  S
In128       O747   2.248       .  S
In128       O136   2.241       .  S
In128       O749   2.245       .  S
In128       O140   2.253       .  S
C129        O135   1.259       .  A
C129        O137   1.258       .  A
C129        C189   1.437       .  S
O130        C138   1.260       .  A
O131        C138   1.260       .  A
C132        O139   1.258       .  A
C132        O133   1.259       .  A
C132        C191   1.435       .  S
C134        O136   1.261       .  A
C134        O140   1.260       .  A
O135       In740   2.254   1_455  S
O137       In740   2.251   1_455  S
C141        N142   1.358       .  A
C141        N146   1.358       .  A
C141        C187   1.437       .  S
N142        C143   1.358       .  A
C143        N144   1.357       .  A
C143        C192   1.436       .  S
N144        C145   1.357       .  A
C145        N146   1.358       .  A
C145        C199   1.438       .  S
C147        N148   1.358       .  A
C147        N152   1.357       .  A
C147        C186   1.436       .  S
N148        C149   1.358       .  A
C149        N150   1.357       .  A
C149        C190   1.437       .  S
N150        C151   1.357       .  A
C151        N152   1.357       .  A
C151        C197   1.435       .  S
C153        N154   1.354       .  A
C153        C181   1.471       .  S
N154        C155   1.355       .  A
C155        N156   1.359       .  A
C155        C169   1.467       .  S
C157        N258   1.361       .  A
C157        N158   1.359       .  A
C157        C165   1.468       .  S
N158        C255   1.358       .  A
In159       O161   2.265       .  S
In159       O162   2.233       .  S
In159       O170   2.252       .  S
In159       O164   2.254       .  S
In159       O166   2.251       .  S
In159       O167   2.244       .  S
In159       O168   2.251       .  S
In159       O171   2.261       .  S
C160        O166   1.258       .  A
C160        O168   1.258       .  A
C160        C185   1.435       .  S
O161        C169   1.261       .  A
O162        C169   1.259       .  A
C163        O170   1.258       .  A
C163        O164   1.258       .  A
C163        C188   1.437       .  S
C165        O167   1.258       .  A
C165        O171   1.260       .  A
C172        C194   1.475       .  S
C172        C785   1.402       .  A
C172        C177   1.399       .  A
C173        C784   1.406   1_455  A
C173        C480   1.402       .  A
C173        H178   1.086       .  S
C174        C182   1.478       .  S
C174        C479   1.404   1_545  A
C174        C787   1.401   1_455  A
C175        C786   1.402       .  A
C175        C482   1.405   1_545  A
C175        H179   1.085       .  S
C176        C201   1.474       .  S
C176        C481   1.406       .  A
C176        C177   1.401       .  A
C177        H180   1.082       .  S
C181        C182   1.341       .  D
C181        H183   1.088       .  S
H184        C284   1.088       .  S
C185        C186   1.206       .  T
C187        C188   1.207       .  T
C189        C190   1.207       .  T
C191        C192   1.206       .  T
C193        C194   1.341       .  D
C193        H705   1.087       .  S
C194        H196   1.086       .  S
H195        C907   1.088       .  S
C197        C198   1.205       .  T
C199        C200   1.207       .  T
C201        C202   1.342       .  D
C201        H203   1.087       .  S
C202        C409   1.472       .  S
C202        H408   1.087       .  S
H204        C610   1.086       .  S
C205        N210   1.358       .  A
C205        C610   1.471       .  S
N206        C513   1.358       .  A
C207        N512   1.358       .  A
C207        N208   1.361       .  A
C207        C527   1.469       .  S
C209        N516   1.360       .  A
C209        C217   1.470       .  S
N210        C515   1.360       .  A
In211       O213   2.259       .  S
In211       O520   2.246       .  S
In211       O222   2.250       .  S
In211       O216   2.253       .  S
In211       O524   2.256       .  S
In211       O525   2.249       .  S
In211       O526   2.251       .  S
In211       O223   2.259       .  S
C212        O218   1.258       .  A
C212        O220   1.257       .  A
C212        C302   1.432       .  S
O213        C527   1.260       .  A
O214       In517   2.241   1_545  S
O214        C221   1.258       .  A
C215        O222   1.258       .  A
C215        O216   1.258       .  A
C215        C300   1.435       .  S
C217        O525   1.260       .  A
C217        O223   1.260       .  A
O218       In517   2.251   1_545  S
O219       In517   2.244       .  S
O219        C523   1.259   1_565  A
O220       In517   2.245   1_545  S
C221        C513   1.466       .  S
C221        O519   1.260   1_545  A
C224        N225   1.357       .  A
C224        C295   1.472       .  S
N225        C226   1.360       .  A
C226        N227   1.360       .  A
C226        C240   1.467       .  S
C228        N229   1.354       .  A
C228        C236   1.464       .  S
In230       O232   2.256       .  S
In230       O233   2.240       .  S
In230       O241   2.240       .  S
In230       O235   2.256       .  S
In230       O849   2.253       .  S
In230       O238   2.222       .  S
In230       O851   2.243       .  S
In230       O242   2.266       .  S
C231        O237   1.259       .  A
C231        O239   1.259       .  A
C231        C291   1.433       .  S
O232        C240   1.261       .  A
O233        C240   1.259       .  A
C234        O241   1.257       .  A
C234        O235   1.260       .  A
C234        C293   1.434       .  S
C236        O238   1.259       .  A
C236        O242   1.261       .  A
O237       In842   2.244   1_455  S
O239       In842   2.244   1_455  S
C243        N244   1.359       .  A
C243        N248   1.357       .  A
C243        C289   1.436       .  S
N244        C245   1.359       .  A
C245        N246   1.355       .  A
C245        C294   1.434       .  S
N246        C247   1.355       .  A
C247        N248   1.356       .  A
C247        C301   1.433       .  S
C249        N250   1.357       .  A
C249        N254   1.357       .  A
C249        C288   1.434       .  S
N250        C251   1.357       .  A
C251        N252   1.357       .  A
C251        C292   1.434       .  S
N252        C253   1.356       .  A
C253        N254   1.357       .  A
C253        C299   1.435       .  S
C255        N256   1.356       .  A
C255        C283   1.473       .  S
N256        C257   1.358       .  A
C257        N258   1.361       .  A
C257        C271   1.469       .  S
C259        N260   1.361       .  A
C259        C267   1.470       .  S
In261       O263   2.264       .  S
In261       O264   2.244       .  S
In261       O272   2.247       .  S
In261       O266   2.254       .  S
In261       O268   2.250       .  S
In261       O269   2.248       .  S
In261       O270   2.249       .  S
In261       O273   2.256       .  S
C262        O268   1.258       .  A
C262        O270   1.257       .  A
C262        C287   1.434       .  S
O263        C271   1.260       .  A
O264        C271   1.259       .  A
C265        O272   1.258       .  A
C265        O266   1.258       .  A
C265        C290   1.436       .  S
C267        O269   1.260       .  A
C267        O273   1.261       .  A
C274        C296   1.474       .  S
C274        C887   1.400       .  A
C274        C279   1.405       .  A
C275        C886   1.402   1_455  A
C275        C582   1.401       .  A
C275        H280   1.086       .  S
C276        C284   1.478       .  S
C276        C581   1.407   1_545  A
C276        C889   1.403   1_455  A
C277        C888   1.403       .  A
C277        C584   1.405   1_545  A
C277        H281   1.083       .  S
C278        C303   1.478       .  S
C278        C583   1.405       .  A
C278        C279   1.402       .  A
C279        H282   1.083       .  S
C283        C284   1.341       .  D
C283        H285   1.088       .  S
C287        C288   1.205       .  T
C289        C290   1.206       .  T
C291        C292   1.205       .  T
C293        C294   1.205       .  T
C295        C296   1.342       .  D
C295        H807   1.087       .  S
C296        H298   1.088       .  S
H297        C703   1.088       .  S
C299        C300   1.206       .  T
C301        C302   1.204       .  T
C303        C304   1.342       .  D
C303        H305   1.086       .  S
C304        C511   1.472       .  S
C304        H510   1.087       .  S
H306        C406   1.087       .  S
C307        N512   1.357       .  A
C307        N312   1.358   1_556  A
N308        C409   1.356       .  A
C309        N310   1.360       .  A
N310        C413   1.360       .  A
C311        N514   1.359   1_544  A
C311        C319   1.466       .  S
In313       O315   2.256   1_545  S
In313       O324   2.253   1_545  S
In313       O318   2.250   1_545  S
In313       O325   2.255       .  S
C314        O320   1.259       .  A
C314        O322   1.257       .  A
C314        C404   1.434       .  S
O316        C323   1.260       .  A
C317        O324   1.259       .  A
C317        O318   1.259       .  A
C317        C402   1.437       .  S
C319        O325   1.260       .  A
C326        N327   1.358       .  A
C326        N535   1.354   1_554  A
C326        C397   1.472       .  S
N327        C328   1.361       .  A
C328        N329   1.362       .  A
C328        C342   1.467       .  S
N329        C534   1.360   1_554  A
C330        N431   1.359       .  A
C330        N331   1.355       .  A
C330        C338   1.465       .  S
N331        C428   1.353       .  A
In332       O334   2.259       .  S
In332       O335   2.243       .  S
In332       O343   2.247       .  S
In332       O337   2.248       .  S
In332       O951   2.257       .  S
In332       O340   2.228       .  S
In332       O953   2.248       .  S
In332       O344   2.264       .  S
C333        O339   1.260       .  A
C333        O341   1.258       .  A
C333        C393   1.439       .  S
O334        C342   1.260       .  A
O335        C342   1.258       .  A
C336        O343   1.259       .  A
C336        O337   1.259       .  A
C336        C395   1.435       .  S
C338        O340   1.259       .  A
C338        O344   1.261       .  A
O339       In944   2.260   1_455  S
O341       In944   2.250   1_455  S
C345        N346   1.357       .  A
C345        N350   1.357       .  A
C345        C391   1.433       .  S
N346        C347   1.357       .  A
C347        N348   1.357       .  A
C347        C396   1.435       .  S
N348        C349   1.357       .  A
C349        N350   1.356       .  A
C349        C403   1.435       .  S
C351        N352   1.358       .  A
C351        N356   1.356       .  A
C351        C390   1.435       .  S
N352        C353   1.358       .  A
C353        N354   1.359       .  A
C353        C394   1.439       .  S
N354        C355   1.359       .  A
C355        N356   1.356       .  A
C355        C401   1.437       .  S
C357        N358   1.353       .  A
C357        N566   1.358   1_554  A
C357        C385   1.469       .  S
N358        C359   1.355       .  A
C359        N360   1.361       .  A
C359        C373   1.467       .  S
N360        C565   1.363   1_554  A
C361        N462   1.361       .  A
C361        N362   1.361       .  A
C361        C369   1.468       .  S
N362        C459   1.359       .  A
In363       O365   2.266       .  S
In363       O366   2.231       .  S
In363       O374   2.245       .  S
In363       O368   2.248       .  S
In363       O370   2.251       .  S
In363       O371   2.248       .  S
In363       O372   2.242       .  S
In363       O375   2.254       .  S
C364        O370   1.259       .  A
C364        O372   1.258       .  A
C364        C389   1.434       .  S
O365        C373   1.260       .  A
O366        C373   1.259       .  A
C367        O374   1.258       .  A
C367        O368   1.258       .  A
C367        C392   1.433       .  S
C369        O371   1.259       .  A
C369        O375   1.260       .  A
C376        C398   1.478       .  S
C376        C989   1.405       .  A
C376        C381   1.401       .  A
C377        C988   1.403   1_455  A
C377        H382   1.085       .  S
C378        C386   1.480   1_554  S
C378        C991   1.403   1_455  A
C379        C990   1.402       .  A
C379        H383   1.085       .  S
C380        C405   1.478       .  S
C380        C381   1.402       .  A
C381        H384   1.082       .  S
C385        C386   1.342   1_554  D
C385        H387   1.087       .  S
C386        H592   1.088       .  S
H388        C488   1.088       .  S
C389        C390   1.205       .  T
C391        C392   1.204       .  T
C393        C394   1.208       .  T
C395        C396   1.205       .  T
C397        C398   1.341       .  D
C397       H1215   1.087   1_554  S
C398        H400   1.086       .  S
H399       C1111   1.087   1_455  S
C401        C402   1.207       .  T
C403        C404   1.205       .  T
C405        C406   1.343   1_564  D
C405        H407   1.087       .  S
C409        N414   1.356       .  A
N410        C511   1.355       .  A
C411        N412   1.360       .  A
N412        C515   1.362       .  A
C413        C421   1.468       .  S
In415       O417   2.268       .  S
In415       O426   2.249   1_545  S
In415       O420   2.254   1_545  S
In415       O427   2.262       .  S
C416        O422   1.258       .  A
C416        O424   1.258       .  A
C416        C506   1.435       .  S
O418        C425   1.259       .  A
C419        O426   1.259       .  A
C419        O420   1.259       .  A
C419        C504   1.437       .  S
C421        O427   1.261       .  A
C428        N429   1.359       .  A
C428        C499   1.471       .  S
N429        C430   1.361       .  A
C430        N431   1.362       .  A
C430        C444   1.469       .  S
C432        N533   1.360       .  A
C432        N433   1.358       .  A
C432        C440   1.467       .  S
N433        C530   1.358       .  A
In434       O436   2.258       .  S
In434       O437   2.251       .  S
In434       O445   2.250       .  S
In434       O439   2.252       .  S
In434      O1053   2.254       .  S
In434       O442   2.242       .  S
In434      O1055   2.248       .  S
In434       O446   2.253       .  S
C435        O441   1.259       .  A
C435        O443   1.258       .  A
C435        C495   1.439       .  S
O436        C444   1.259       .  A
O437        C444   1.259       .  A
C438        O445   1.258       .  A
C438        O439   1.259       .  A
C438        C497   1.435       .  S
C440        O442   1.260       .  A
C440        O446   1.261       .  A
O441      In1046   2.258   1_455  S
O443      In1046   2.251   1_455  S
C447        N448   1.357       .  A
C447        N452   1.358       .  A
C447        C493   1.435       .  S
N448        C449   1.357       .  A
C449        N450   1.357       .  A
C449        C498   1.435       .  S
N450        C451   1.357       .  A
C451        N452   1.357       .  A
C451        C505   1.435       .  S
C453        N454   1.358       .  A
C453        N458   1.357       .  A
C453        C492   1.436       .  S
N454        C455   1.358       .  A
C455        N456   1.359       .  A
C455        C496   1.439       .  S
N456        C457   1.358       .  A
C457        N458   1.357       .  A
C457        C503   1.437       .  S
C459        N460   1.354       .  A
C459        C487   1.472       .  S
N460        C461   1.356       .  A
C461        N462   1.359       .  A
C461        C475   1.465       .  S
C463        N564   1.360       .  A
C463        N464   1.358       .  A
C463        C471   1.467       .  S
N464        C561   1.358       .  A
In465       O467   2.264       .  S
In465       O468   2.227       .  S
In465       O476   2.248       .  S
In465       O470   2.248       .  S
In465       O472   2.259       .  S
In465       O473   2.243       .  S
In465       O474   2.242       .  S
In465       O477   2.260       .  S
C466        O472   1.259       .  A
C466        O474   1.256       .  A
C466        C491   1.435       .  S
O467        C475   1.262       .  A
O468        C475   1.259       .  A
C469        O476   1.258       .  A
C469        O470   1.259       .  A
C469        C494   1.434       .  S
C471        O473   1.258       .  A
C471        O477   1.260       .  A
C478        C500   1.478       .  S
C478       C1091   1.404       .  A
C478        C483   1.401       .  A
C479       C1090   1.404   1_455  A
C479        H484   1.085       .  S
C480        C488   1.478       .  S
C480       C1093   1.404   1_455  A
C481       C1092   1.402       .  A
C481        H485   1.085       .  S
C482        C507   1.478       .  S
C482        C483   1.402       .  A
C483        H486   1.081       .  S
C487        C488   1.342       .  D
C487        H489   1.088       .  S
H490        C590   1.089       .  S
C491        C492   1.206       .  T
C493        C494   1.205       .  T
C495        C496   1.208       .  T
C497        C498   1.206       .  T
C499        C500   1.341       .  D
C499       H1011   1.087       .  S
C500        H502   1.086       .  S
H501       C1213   1.085   1_455  S
C503        C504   1.207       .  T
C505        C506   1.206       .  T
C507        C508   1.342   1_565  D
C507        H509   1.087       .  S
C511        N516   1.359       .  A
C513        N514   1.359   1_545  A
C515        C523   1.469       .  S
In517       O519   2.259       .  S
In517       O528   2.248       .  S
In517       O522   2.248       .  S
In517       O529   2.259       .  S
C518        O524   1.258       .  A
C518        O526   1.258       .  A
C518        C608   1.437       .  S
O520        C527   1.260       .  A
C521        O528   1.258       .  A
C521        O522   1.258       .  A
C521        C606   1.434       .  S
C523        O529   1.261   1_545  A
C530        N531   1.356       .  A
C530        C601   1.474       .  S
N531        C532   1.358       .  A
C532        N533   1.359       .  A
C532        C546   1.467       .  S
C534        N535   1.356       .  A
C534        C542   1.466       .  S
In536       O538   2.257       .  S
In536       O539   2.240       .  S
In536       O547   2.248       .  S
In536       O541   2.257       .  S
In536      O1155   2.256       .  S
In536       O544   2.227       .  S
In536      O1157   2.245       .  S
In536       O548   2.264       .  S
C537        O543   1.260       .  A
C537        O545   1.256       .  A
C537        C597   1.435       .  S
O538        C546   1.261       .  A
O539        C546   1.259       .  A
C540        O547   1.257       .  A
C540        O541   1.259       .  A
C540        C599   1.437       .  S
C542        O544   1.259       .  A
C542        O548   1.262       .  A
O543      In1148   2.259   1_455  S
O545      In1148   2.241   1_455  S
C549        N550   1.358       .  A
C549        N554   1.359       .  A
C549        C595   1.439       .  S
N550        C551   1.358       .  A
C551        N552   1.357       .  A
C551        C600   1.437       .  S
N552        C553   1.357       .  A
C553        N554   1.358       .  A
C553        C607   1.437       .  S
C555        N556   1.356       .  A
C555        N560   1.356       .  A
C555        C594   1.433       .  S
N556        C557   1.356       .  A
C557        N558   1.358       .  A
C557        C598   1.436       .  S
N558        C559   1.358       .  A
C559        N560   1.357       .  A
C559        C605   1.435       .  S
C561        N562   1.357       .  A
C561        C589   1.472       .  S
N562        C563   1.358       .  A
C563        N564   1.360       .  A
C563        C577   1.469       .  S
C565        N566   1.360       .  A
C565        C573   1.469       .  S
In567       O569   2.256       .  S
In567       O570   2.249       .  S
In567       O578   2.250       .  S
In567       O572   2.251       .  S
In567       O574   2.247       .  S
In567       O575   2.249       .  S
In567       O576   2.242       .  S
In567       O579   2.256       .  S
C568        O574   1.259       .  A
C568        O576   1.258       .  A
C568        C593   1.432       .  S
O569        C577   1.261       .  A
O570        C577   1.260       .  A
C571        O578   1.259       .  A
C571        O572   1.259       .  A
C571        C596   1.438       .  S
C573        O575   1.260       .  A
C573        O579   1.259       .  A
C580        C602   1.477       .  S
C580       C1193   1.402       .  A
C580        C585   1.405       .  A
C581       C1192   1.405   1_455  A
C581        H586   1.084       .  S
C582        C590   1.477       .  S
C582       C1195   1.403   1_455  A
C583       C1194   1.404       .  A
C583        H587   1.084       .  S
C584        C609   1.479       .  S
C584        C585   1.403       .  A
C585        H588   1.085       .  S
C589        C590   1.343       .  D
C589        H591   1.088       .  S
C593        C594   1.204       .  T
C595        C596   1.208       .  T
C597        C598   1.206       .  T
C599        C600   1.207       .  T
C601        C602   1.342       .  D
C601       H1113   1.087       .  S
C602        H604   1.087       .  S
H603       C1009   1.087       .  S
C605        C606   1.205       .  T
C607        C608   1.207       .  T
C609        C610   1.343   1_565  D
C609        H611   1.086       .  S
C613        N818   1.358       .  A
C613        N618   1.359   1_556  A
C613       C1018   1.477       .  S
N614        C715   1.355       .  A
N614        C921   1.357       .  A
C615        N920   1.358       .  A
C615        N616   1.361       .  A
C615        C935   1.469       .  S
N616        C719   1.361       .  A
C617        N820   1.360   1_554  A
C617        N924   1.358       .  A
C617        C625   1.467       .  S
N618        C923   1.358   1_545  A
In619       O621   2.261       .  S
In619       O928   2.248       .  S
In619       O630   2.252       .  S
In619       O624   2.252       .  S
In619       O932   2.253       .  S
In619       O933   2.238       .  S
In619       O934   2.246       .  S
In619       O631   2.259       .  S
C620        O626   1.259       .  A
C620        O628   1.257       .  A
C620        C710   1.437       .  S
O621        C935   1.259       .  A
O622       In925   2.238       .  S
O622        C629   1.261       .  A
C623        O630   1.259       .  A
C623        O624   1.259       .  A
C623        C708   1.438       .  S
C625        O933   1.260       .  A
C625        O631   1.261       .  A
O626       In925   2.257       .  S
O627       In925   2.247       .  S
O627        C931   1.260   1_545  A
O628       In925   2.253       .  S
C629        C921   1.466       .  S
C629        O927   1.261       .  A
C632        N633   1.357   1_456  A
C632        N841   1.354   1_455  A
C632        C703   1.470       .  S
N633        C634   1.359       .  A
C634        N635   1.362   1_554  A
C634        C648   1.468       .  S
N635        C840   1.361       .  A
C636        N737   1.358       .  A
C636        N637   1.356   1_655  A
C636        C644   1.465       .  S
N637        C734   1.355       .  A
In638       O640   2.260       .  S
In638       O641   2.239       .  S
In638       O649   2.247       .  S
In638       O643   2.249       .  S
In638       O646   2.236       .  S
In638       O650   2.257       .  S
C639        O645   1.260       .  A
C639        O647   1.257       .  A
C639        C699   1.439       .  S
O640        C648   1.261       .  A
O641        C648   1.260       .  A
C642        O649   1.257       .  A
C642        O643   1.259       .  A
C642        C701   1.434       .  S
C644        O646   1.259       .  A
C644        O650   1.260       .  A
C651        N652   1.358       .  A
C651        N656   1.358       .  A
C651        C697   1.436       .  S
N652        C653   1.358       .  A
C653        N654   1.357       .  A
C653        C702   1.434       .  S
N654        C655   1.357       .  A
C655        N656   1.357       .  A
C655        C709   1.437       .  S
C657        N658   1.357       .  A
C657        N662   1.358       .  A
C657        C696   1.437       .  S
N658        C659   1.357       .  A
C659        N660   1.358       .  A
C659        C700   1.439       .  S
N660        C661   1.359       .  A
C661        N662   1.358       .  A
C661        C707   1.439       .  S
C663        N664   1.354       .  A
C663        N872   1.361   1_554  A
C663        C691   1.474       .  S
N664        C665   1.355       .  A
C665        N666   1.360       .  A
C665        C679   1.468       .  S
N666        C871   1.362   1_554  A
C667        N768   1.361       .  A
C667        N668   1.361       .  A
C667        C675   1.468       .  S
N668        C765   1.359       .  A
In669       O671   2.266       .  S
In669       O672   2.234       .  S
In669       O680   2.249       .  S
In669       O674   2.255       .  S
In669       O676   2.246       .  S
In669       O677   2.249       .  S
In669       O678   2.253       .  S
In669       O681   2.261       .  S
C670        O676   1.258       .  A
C670        O678   1.259       .  A
C670        C695   1.436       .  S
O671        C679   1.261       .  A
O672        C679   1.259       .  A
C673        O680   1.257       .  A
C673        O674   1.258       .  A
C673        C698   1.435       .  S
C675        O677   1.258       .  A
C675        O681   1.260       .  A
C682        C704   1.476       .  S
C682        C687   1.400       .  A
C683        C990   1.405   1_554  A
C683        H688   1.085       .  S
C684        C692   1.483   1_554  S
C684        C989   1.406   1_545  A
C685        C992   1.406   1_546  A
C685        H689   1.085       .  S
C686        C711   1.477       .  S
C686        C991   1.406       .  A
C686        C687   1.402       .  A
C687        H690   1.082       .  S
C691        C692   1.342   1_554  D
C691        H693   1.087       .  S
C692        H898   1.087       .  S
H694        C794   1.087       .  S
C695        C696   1.206       .  T
C697        C698   1.206       .  T
C699        C700   1.208       .  T
C701        C702   1.205       .  T
C703        C704   1.342   1_456  D
C704        H706   1.087       .  S
C707        C708   1.208       .  T
C709        C710   1.207       .  T
C711        C712   1.343   1_554  D
C711        H713   1.085       .  S
C712        C919   1.474       .  S
C712       H1224   1.086       .  S
H714       C1120   1.087       .  S
C715        N720   1.357       .  A
C715       C1120   1.472       .  S
N716        C817   1.355       .  A
N716       C1023   1.357       .  A
C717       N1022   1.357       .  A
C717        N718   1.359       .  A
C717       C1037   1.467       .  S
N718        C821   1.361       .  A
C719       N1026   1.358       .  A
C719        C727   1.467       .  S
N720       C1025   1.358       .  A
In721       O723   2.265       .  S
In721      O1030   2.234       .  S
In721       O732   2.253       .  S
In721       O726   2.255       .  S
In721      O1034   2.259       .  S
In721      O1035   2.235       .  S
In721      O1036   2.246       .  S
In721       O733   2.268       .  S
C722        O728   1.259       .  A
C722        O730   1.256       .  A
C722        C812   1.433       .  S
O723       C1037   1.261       .  A
O724      In1027   2.233       .  S
O724        C731   1.259       .  A
C725        O732   1.258       .  A
C725        O726   1.259       .  A
C725        C810   1.438       .  S
C727       O1035   1.258       .  A
C727        O733   1.261       .  A
O728      In1027   2.255       .  S
O729      In1027   2.234       .  S
O729       C1033   1.259       .  A
O730      In1027   2.244       .  S
C731       C1023   1.466       .  S
C731       O1029   1.261       .  A
C734        N735   1.360   1_455  A
C734        C805   1.473       .  S
N735        C736   1.361       .  A
C736        N737   1.360       .  A
C736        C750   1.470       .  S
C738        N839   1.361       .  A
C738        N739   1.359       .  A
C738        C746   1.469       .  S
N739        C836   1.358       .  A
In740       O742   2.255       .  S
In740       O743   2.252       .  S
In740       O751   2.243       .  S
In740       O745   2.255       .  S
In740       O748   2.241       .  S
In740       O752   2.262       .  S
C741        O747   1.260       .  A
C741        O749   1.259       .  A
C741        C801   1.435       .  S
O742        C750   1.260       .  A
O743        C750   1.259       .  A
C744        O751   1.257       .  A
C744        O745   1.259       .  A
C744        C803   1.435       .  S
C746        O748   1.259       .  A
C746        O752   1.260       .  A
C753        N754   1.358       .  A
C753        N758   1.356       .  A
C753        C799   1.435       .  S
N754        C755   1.359       .  A
C755        N756   1.357       .  A
C755        C804   1.435       .  S
N756        C757   1.356       .  A
C757        N758   1.355       .  A
C757        C811   1.433       .  S
C759        N760   1.358       .  A
C759        N764   1.358       .  A
C759        C798   1.438       .  S
N760        C761   1.358       .  A
C761        N762   1.357       .  A
C761        C802   1.436       .  S
N762        C763   1.357       .  A
C763        N764   1.358       .  A
C763        C809   1.438       .  S
C765        N766   1.353       .  A
C765        C793   1.469       .  S
N766        C767   1.355       .  A
C767        N768   1.359       .  A
C767        C781   1.465       .  S
C769        N870   1.360       .  A
C769        N770   1.359       .  A
C769        C777   1.467       .  S
N770        C867   1.358       .  A
In771       O773   2.264       .  S
In771       O774   2.234       .  S
In771       O782   2.246       .  S
In771       O776   2.250       .  S
In771       O778   2.254       .  S
In771       O779   2.238       .  S
In771       O780   2.255       .  S
In771       O783   2.257       .  S
C772        O778   1.258       .  A
C772        O780   1.258       .  A
C772        C797   1.438       .  S
O773        C781   1.259       .  A
O774        C781   1.258       .  A
C775        O782   1.258       .  A
C775        O776   1.259       .  A
C775        C800   1.434       .  S
C777        O779   1.259       .  A
C777        O783   1.261       .  A
C784        C806   1.482       .  S
C784        C789   1.404       .  A
C785       C1092   1.404       .  A
C785        H790   1.085       .  S
C786        C794   1.478       .  S
C786       C1091   1.404   1_545  A
C787       C1094   1.405   1_545  A
C787        H791   1.085       .  S
C788        C813   1.479       .  S
C788       C1093   1.404       .  A
C788        C789   1.403       .  A
C789        H792   1.082       .  S
C793        C794   1.342       .  D
C793        H795   1.088       .  S
H796        C896   1.087       .  S
C797        C798   1.207       .  T
C799        C800   1.205       .  T
C801        C802   1.206       .  T
C803        C804   1.206       .  T
C805        C806   1.342   1_455  D
C806        H808   1.086       .  S
C809        C810   1.207       .  T
C811        C812   1.204       .  T
C813        C814   1.344       .  D
C813        H815   1.086       .  S
C814       C1021   1.473       .  S
C814       H1020   1.086       .  S
H816       C1222   1.088       .  S
C817        N822   1.359       .  A
C817       C1222   1.473       .  S
N818       C1125   1.360   1_545  A
C819       N1124   1.358       .  A
C819        N820   1.360       .  A
C819       C1139   1.467       .  S
C821       N1128   1.359       .  A
C821        C829   1.466       .  S
N822       C1127   1.359       .  A
In823       O825   2.252       .  S
In823      O1132   2.241       .  S
In823       O834   2.249       .  S
In823       O828   2.252       .  S
In823      O1136   2.252       .  S
In823      O1137   2.246       .  S
In823      O1138   2.247       .  S
In823       O835   2.252       .  S
C824        O830   1.258       .  A
C824        O832   1.258       .  A
C824        C914   1.434       .  S
O825       C1139   1.261       .  A
O826      In1129   2.255       .  S
O826        C833   1.259       .  A
C827        O834   1.258       .  A
C827        O828   1.259       .  A
C827        C912   1.436       .  S
C829       O1137   1.259       .  A
C829        O835   1.259       .  A
O830      In1129   2.252   1_545  S
O831      In1129   2.249       .  S
O831       C1135   1.259   1_565  A
O832      In1129   2.245   1_545  S
C833       C1125   1.472       .  S
C833       O1131   1.260       .  A
C836        N837   1.356       .  A
C836        C907   1.474       .  S
N837        C838   1.357       .  A
C838        N839   1.361       .  A
C838        C852   1.468       .  S
C840        N841   1.356       .  A
C840        C848   1.469       .  S
In842       O844   2.256       .  S
In842       O845   2.243       .  S
In842       O853   2.251       .  S
In842       O847   2.252       .  S
In842       O850   2.239       .  S
In842       O854   2.266       .  S
C843        O849   1.259       .  A
C843        O851   1.257       .  A
C843        C903   1.434       .  S
O844        C852   1.260       .  A
O845        C852   1.260       .  A
C846        O853   1.258       .  A
C846        O847   1.258       .  A
C846        C905   1.437       .  S
C848        O850   1.260       .  A
C848        O854   1.261       .  A
C855        N856   1.359       .  A
C855        N860   1.357       .  A
C855        C901   1.437       .  S
N856        C857   1.359       .  A
C857        N858   1.357       .  A
C857        C906   1.437       .  S
N858        C859   1.357       .  A
C859        N860   1.356       .  A
C859        C913   1.434       .  S
C861        N862   1.356       .  A
C861        N866   1.357       .  A
C861        C900   1.434       .  S
N862        C863   1.356       .  A
C863        N864   1.358       .  A
C863        C904   1.435       .  S
N864        C865   1.358       .  A
C865        N866   1.358       .  A
C865        C911   1.437       .  S
C867        N868   1.356       .  A
C867        C895   1.472       .  S
N868        C869   1.357       .  A
C869        N870   1.360       .  A
C869        C883   1.468       .  S
C871        N872   1.363       .  A
C871        C879   1.473       .  S
In873       O875   2.256       .  S
In873       O876   2.245       .  S
In873       O884   2.254       .  S
In873       O878   2.251       .  S
In873       O880   2.250       .  S
In873       O881   2.258       .  S
In873       O882   2.246       .  S
In873       O885   2.260       .  S
C874        O880   1.258       .  A
C874        O882   1.258       .  A
C874        C899   1.434       .  S
O875        C883   1.260       .  A
O876        C883   1.260       .  A
C877        O884   1.259       .  A
C877        O878   1.258       .  A
C877        C902   1.437       .  S
C879        O881   1.260       .  A
C879        O885   1.260       .  A
C886        C908   1.476       .  S
C886        C891   1.405       .  A
C887       C1194   1.399       .  A
C887        H892   1.086       .  S
C888        C896   1.477       .  S
C888       C1193   1.401   1_545  A
C889       C1196   1.404   1_545  A
C889        H893   1.084       .  S
C890        C915   1.475       .  S
C890       C1195   1.403       .  A
C890        C891   1.402       .  A
C891        H894   1.083       .  S
C895        C896   1.343       .  D
C895        H897   1.087       .  S
C899        C900   1.205       .  T
C901        C902   1.207       .  T
C903        C904   1.205       .  T
C905        C906   1.207       .  T
C907        C908   1.342       .  D
C908        H910   1.088       .  S
C911        C912   1.206       .  T
C913        C914   1.205       .  T
C915        C916   1.342       .  D
C915        H917   1.086       .  S
C916       C1123   1.470       .  S
C916       H1122   1.087       .  S
H918       C1018   1.087       .  S
C919       N1124   1.357       .  A
C919        N924   1.358   1_556  A
N920       C1021   1.356       .  A
C921        N922   1.360       .  A
N922       C1025   1.360       .  A
C923       N1126   1.360   1_554  A
C923        C931   1.470       .  S
In925       O927   2.255       .  S
In925       O936   2.248   1_545  S
In925       O930   2.261   1_545  S
In925       O937   2.260   1_545  S
C926        O932   1.259       .  A
C926        O934   1.257       .  A
C926       C1016   1.435       .  S
O928        C935   1.259       .  A
C929        O936   1.258       .  A
C929        O930   1.261       .  A
C929       C1014   1.440       .  S
C931        O937   1.260       .  A
C938        N939   1.358       .  A
C938       N1147   1.354   1_554  A
C938       C1009   1.471   1_654  S
N939        C940   1.361       .  A
C940        N941   1.361       .  A
C940        C954   1.465       .  S
N941       C1146   1.359   1_554  A
C942       N1043   1.359       .  A
C942        N943   1.356       .  A
C942        C950   1.467       .  S
N943       C1040   1.354       .  A
In944       O946   2.252       .  S
In944       O947   2.240       .  S
In944       O955   2.255       .  S
In944       O949   2.255       .  S
In944       O952   2.233       .  S
In944       O956   2.266       .  S
C945        O951   1.259       .  A
C945        O953   1.257       .  A
C945       C1005   1.436       .  S
O946        C954   1.261       .  A
O947        C954   1.259       .  A
C948        O955   1.258       .  A
C948        O949   1.259       .  A
C948       C1007   1.438       .  S
C950        O952   1.258       .  A
C950        O956   1.261       .  A
C957        N958   1.358       .  A
C957        N962   1.356       .  A
C957       C1003   1.436       .  S
N958        C959   1.358       .  A
C959        N960   1.358       .  A
C959       C1008   1.438       .  S
N960        C961   1.358       .  A
C961        N962   1.356       .  A
C961       C1015   1.435       .  S
C963        N964   1.358       .  A
C963        N968   1.360       .  A
C963       C1002   1.441       .  S
N964        C965   1.357       .  A
C965        N966   1.357       .  A
C965       C1006   1.437       .  S
N966        C967   1.357       .  A
C967        N968   1.360       .  A
C967       C1013   1.441       .  S
C969        N970   1.354       .  A
C969       N1178   1.361   1_554  A
C969        C997   1.471       .  S
N970        C971   1.354       .  A
C971        N972   1.358       .  A
C971        C985   1.467       .  S
N972       C1177   1.361   1_554  A
C973       N1074   1.363       .  A
C973        N974   1.362       .  A
C973        C981   1.470       .  S
N974       C1071   1.359       .  A
In975       O977   2.265       .  S
In975       O978   2.236       .  S
In975       O986   2.252       .  S
In975       O980   2.251       .  S
In975       O982   2.254       .  S
In975       O983   2.251       .  S
In975       O984   2.256       .  S
In975       O987   2.260       .  S
C976        O982   1.258       .  A
C976        O984   1.259       .  A
C976       C1001   1.440       .  S
O977        C985   1.261       .  A
O978        C985   1.259       .  A
C979        O986   1.258       .  A
C979        O980   1.258       .  A
C979       C1004   1.435       .  S
C981        O983   1.259       .  A
C981        O987   1.260       .  A
C988       C1010   1.480       .  S
C988        C993   1.402       .  A
C989        H994   1.085       .  S
C990        C998   1.481       .  S
C991        H995   1.085   1_554  S
C992       C1017   1.480       .  S
C992        C993   1.404       .  A
C993        H996   1.081       .  S
C997        C998   1.342   1_554  D
C997        H999   1.088       .  S
C998       H1204   1.087       .  S
H1000      C1100   1.087       .  S
C1001      C1002   1.209       .  T
C1003      C1004   1.206       .  T
C1005      C1006   1.206       .  T
C1007      C1008   1.207       .  T
C1009      C1010   1.342   1_456  D
C1010      H1012   1.086       .  S
C1013      C1014   1.209       .  T
C1015      C1016   1.205       .  T
C1017      C1018   1.345   1_564  D
C1017      H1019   1.087       .  S
C1021      N1026   1.357       .  A
N1022      C1123   1.355       .  A
C1023      N1024   1.361       .  A
N1024      C1127   1.361       .  A
C1025      C1033   1.466       .  S
In1027     O1029   2.260       .  S
In1027     O1038   2.242   1_545  S
In1027     O1032   2.257   1_545  S
In1027     O1039   2.261       .  S
C1028      O1034   1.259       .  A
C1028      O1036   1.256       .  A
C1028      C1118   1.436       .  S
O1030      C1037   1.258       .  A
C1031      O1038   1.257       .  A
C1031      O1032   1.260       .  A
C1031      C1116   1.436       .  S
C1033      O1039   1.261       .  A
C1040      N1041   1.360       .  A
C1040      C1111   1.471       .  S
N1041      C1042   1.361       .  A
C1042      N1043   1.361       .  A
C1042      C1056   1.470       .  S
C1044      N1145   1.361       .  A
C1044      N1045   1.360       .  A
C1044      C1052   1.470       .  S
N1045      C1142   1.359       .  A
In1046     O1048   2.256       .  S
In1046     O1049   2.255       .  S
In1046     O1057   2.249       .  S
In1046     O1051   2.250       .  S
In1046     O1054   2.251       .  S
In1046     O1058   2.257       .  S
C1047      O1053   1.259       .  A
C1047      O1055   1.258       .  A
C1047      C1107   1.436       .  S
O1048      C1056   1.260       .  A
O1049      C1056   1.260       .  A
C1050      O1057   1.259       .  A
C1050      O1051   1.259       .  A
C1050      C1109   1.436       .  S
C1052      O1054   1.260       .  A
C1052      O1058   1.260       .  A
C1059      N1060   1.357       .  A
C1059      N1064   1.357       .  A
C1059      C1105   1.435       .  S
N1060      C1061   1.357       .  A
C1061      N1062   1.357       .  A
C1061      C1110   1.436       .  S
N1062      C1063   1.358       .  A
C1063      N1064   1.357       .  A
C1063      C1117   1.436       .  S
C1065      N1066   1.358       .  A
C1065      N1070   1.358       .  A
C1065      C1104   1.438       .  S
N1066      C1067   1.358       .  A
C1067      N1068   1.357       .  A
C1067      C1108   1.437       .  S
N1068      C1069   1.357       .  A
C1069      N1070   1.358       .  A
C1069      C1115   1.437       .  S
C1071      N1072   1.353       .  A
C1071      C1099   1.469       .  S
N1072      C1073   1.354       .  A
C1073      N1074   1.360       .  A
C1073      C1087   1.467       .  S
C1075      N1176   1.361       .  A
C1075      N1076   1.359       .  A
C1075      C1083   1.468       .  S
N1076      C1173   1.358       .  A
In1077     O1079   2.265       .  S
In1077     O1080   2.234       .  S
In1077     O1088   2.243       .  S
In1077     O1082   2.254       .  S
In1077     O1084   2.253       .  S
In1077     O1085   2.244       .  S
In1077     O1086   2.250       .  S
In1077     O1089   2.258       .  S
C1078      O1084   1.259       .  A
C1078      O1086   1.258       .  A
C1078      C1103   1.437       .  S
O1079      C1087   1.260       .  A
O1080      C1087   1.260       .  A
C1081      O1088   1.258       .  A
C1081      O1082   1.259       .  A
C1081      C1106   1.435       .  S
C1083      O1085   1.260       .  A
C1083      O1089   1.260       .  A
C1090      C1112   1.479       .  S
C1090      C1095   1.401       .  A
C1091      H1096   1.085       .  S
C1092      C1100   1.481       .  S
C1093      H1097   1.084       .  S
C1094      C1119   1.475       .  S
C1094      C1095   1.402       .  A
C1095      H1098   1.081       .  S
C1099      C1100   1.342       .  D
C1099      H1101   1.087       .  S
H1102      C1202   1.088       .  S
C1103      C1104   1.207       .  T
C1105      C1106   1.206       .  T
C1107      C1108   1.206       .  T
C1109      C1110   1.206       .  T
C1111      C1112   1.342       .  D
C1112      H1114   1.086       .  S
C1115      C1116   1.206       .  T
C1117      C1118   1.206       .  T
C1119      C1120   1.342   1_565  D
C1119      H1121   1.086       .  S
C1123      N1128   1.357       .  A
C1125      N1126   1.361       .  A
C1127      C1135   1.471       .  S
In1129     O1131   2.264       .  S
In1129     O1140   2.253       .  S
In1129     O1134   2.251       .  S
In1129     O1141   2.263       .  S
C1130      O1136   1.258       .  A
C1130      O1138   1.257       .  A
C1130      C1220   1.434       .  S
O1132      C1139   1.261       .  A
C1133      O1140   1.259       .  A
C1133      O1134   1.257       .  A
C1133      C1218   1.436       .  S
C1135      O1141   1.260   1_545  A
C1142      N1143   1.354       .  A
C1142      C1213   1.473       .  S
N1143      C1144   1.357       .  A
C1144      N1145   1.360       .  A
C1144      C1158   1.466       .  S
C1146      N1147   1.355       .  A
C1146      C1154   1.465       .  S
In1148     O1150   2.262       .  S
In1148     O1151   2.229       .  S
In1148     O1159   2.252       .  S
In1148     O1153   2.256       .  S
In1148     O1156   2.225       .  S
In1148     O1160   2.264       .  S
C1149      O1155   1.260       .  A
C1149      O1157   1.257       .  A
C1149      C1209   1.436       .  S
O1150      C1158   1.262       .  A
O1151      C1158   1.259       .  A
C1152      O1159   1.258       .  A
C1152      O1153   1.260       .  A
C1152      C1211   1.438       .  S
C1154      O1156   1.258       .  A
C1154      O1160   1.261       .  A
C1161      N1162   1.359       .  A
C1161      N1166   1.357       .  A
C1161      C1207   1.438       .  S
N1162      C1163   1.359       .  A
C1163      N1164   1.357       .  A
C1163      C1212   1.438       .  S
N1164      C1165   1.357       .  A
C1165      N1166   1.357       .  A
C1165      C1219   1.435       .  S
C1167      N1168   1.357       .  A
C1167      N1172   1.357       .  A
C1167      C1206   1.435       .  S
N1168      C1169   1.357       .  A
C1169      N1170   1.359       .  A
C1169      C1210   1.437       .  S
N1170      C1171   1.358       .  A
C1171      N1172   1.357       .  A
C1171      C1217   1.437       .  S
C1173      N1174   1.354       .  A
C1173      C1201   1.470       .  S
N1174      C1175   1.356       .  A
C1175      N1176   1.360       .  A
C1175      C1189   1.466       .  S
C1177      N1178   1.363       .  A
C1177      C1185   1.469       .  S
In1179     O1181   2.258       .  S
In1179     O1182   2.236       .  S
In1179     O1190   2.255       .  S
In1179     O1184   2.253       .  S
In1179     O1186   2.249       .  S
In1179     O1187   2.256       .  S
In1179     O1188   2.247       .  S
In1179     O1191   2.250       .  S
C1180      O1186   1.259       .  A
C1180      O1188   1.258       .  A
C1180      C1205   1.435       .  S
O1181      C1189   1.259       .  A
O1182      C1189   1.260       .  A
C1183      O1190   1.259       .  A
C1183      O1184   1.258       .  A
C1183      C1208   1.438       .  S
C1185      O1187   1.260       .  A
C1185      O1191   1.260       .  A
C1192      C1214   1.475       .  S
C1192      C1197   1.400       .  A
C1193      H1198   1.084       .  S
C1194      C1202   1.474       .  S
C1195      H1199   1.084       .  S
C1196      C1221   1.476       .  S
C1196      C1197   1.399       .  A
C1197      H1200   1.084       .  S
C1201      C1202   1.340       .  D
C1201      H1203   1.089       .  S
C1205      C1206   1.205       .  T
C1207      C1208   1.207       .  T
C1209      C1210   1.206       .  T
C1211      C1212   1.208       .  T
C1213      C1214   1.339       .  D
C1214      H1216   1.086       .  S
C1217      C1218   1.206       .  T
C1219      C1220   1.205       .  T
C1221      C1222   1.340   1_565  D
C1221      H1223   1.088       .  S
