geometry optimzed in LAMMPS
_audit_creation_date              2020-11-30 
_audit_creation_method            'lammps2cif' 
_symmetry_space_group_name_H-M    'P1' 
_symmetry_Int_Tables_number       1 
_symmetry_cell_setting            triclinic 
loop_ 
_symmetry_equiv_pos_as_xyz 
  x,y,z 
_cell_length_a                    56.19833828 
_cell_length_b                    56.20829882505611 
_cell_length_c                    40.83394880304339 
_cell_angle_alpha                 86.7206453061773 
_cell_angle_beta                  91.59629491794708 
_cell_angle_gamma                 120.02467599720407 
loop_ 
_atom_site_label 
_atom_site_type_symbol 
_atom_site_fract_x 
_atom_site_fract_y 
_atom_site_fract_z 
_atom_site_charge 
N1          N  0.41833374  0.19034505  0.14138689    -0.02400
C2          C  0.40271510  0.20230367  0.14463680     0.00200
C3          C  0.37832461  0.18816581  0.12766517    -0.22700
C4          C  0.37951448  0.16777770  0.11210338    -0.22900
C5          C  0.40440752  0.16986597  0.12042203     0.00100
H6          H  0.36331102  0.19463527  0.12286366     0.13900
H7          H  0.36550751  0.15534886  0.09334438     0.13900
N8          N  0.23778250  0.84670393  0.37218207    -0.02400
C9          C  0.25206056  0.87374123  0.37920558     0.00200
C10         C  0.24354140  0.88847405  0.35856698    -0.22700
C11         C  0.22479646  0.87048967  0.33711998    -0.22900
C12         C  0.22233421  0.84526385  0.34531324     0.00100
H13         H  0.25314222  0.91066321  0.35594762     0.13900
H14         H  0.21646855  0.87590983  0.31562378     0.13900
N15         N  0.89756028  0.20665808  0.15827014    -0.02400
C16         C  0.88221910  0.17943993  0.16773514     0.00200
C17         C  0.89092738  0.16435824  0.15126626    -0.22700
C18         C  0.91049554  0.18215708  0.12926703    -0.22900
C19         C  0.91376141  0.20785455  0.13330823     0.00100
H20         H  0.88080356  0.14213838  0.15112161     0.13900
H21         H  0.91897104  0.17635230  0.10979900     0.13900
N22         N  0.70722895  0.84357016  0.39876669    -0.02400
C23         C  0.71500018  0.82407827  0.39819107     0.00200
C24         C  0.72472007  0.82089512  0.42856095    -0.22700
C25         C  0.72268336  0.83846744  0.44868077    -0.22900
C26         C  0.71196955  0.85219899  0.43011500     0.00100
H27         H  0.73053624  0.80569947  0.43600865     0.13900
H28         H  0.72669818  0.83965137  0.47479406     0.13900
N29         N  0.88886989  0.67509955  0.11217111    -0.02400
C30         C  0.91677418  0.68858584  0.11537177     0.00200
C31         C  0.92834880  0.71214742  0.09493615    -0.22700
C32         C  0.90736420  0.71283123  0.07782653    -0.22900
C33         C  0.88350703  0.68967062  0.08822101     0.00100
H34         H  0.95000008  0.72521253  0.08942960     0.13900
H35         H  0.90964720  0.72659296  0.05696211     0.13900
N36         N  0.25266714  0.37661960  0.36745356    -0.02400
C37         C  0.22531004  0.36336085  0.37465870     0.00200
C38         C  0.21088990  0.34288925  0.35285763    -0.22700
C39         C  0.22947359  0.34429913  0.33069512    -0.22900
C40         C  0.25473659  0.36527643  0.33987787     0.00100
H41         H  0.18875780  0.33094745  0.35040191     0.13900
H42         H  0.22470574  0.33310150  0.30850617     0.13900
O43         O  0.96903682  0.33208313  0.34487407    -0.77400
C44         C  0.98500333  0.34004793  0.45440665     0.83600
O45         O  0.96234896  0.40951962  0.37759743    -0.78500
O46         O  0.04542665  0.43148991  0.44342969    -0.80000
O47         O  0.06708072  0.38967395  0.35713868    -0.79800
O48         O  0.00589302  0.35718169  0.31294273    -0.78500
Zn49       Zn  0.97453683  0.35550325  0.38410860     1.55700
O50         O  0.06642367  0.39020866  0.41186376    -0.79900
Cd51       Cd  0.03155539  0.39074931  0.34174812     1.59700
Cd52       Cd  0.00338733  0.42108751  0.37715430     1.59600
O53         O  0.04447678  0.42754377  0.31321310    -0.79800
O54         O  0.01016001  0.38945731  0.38133571    -1.90300
Cd55       Cd  0.03224306  0.39344592  0.42239379     1.59900
O56         O  0.02076384  0.44467360  0.33540297    -0.79800
O57         O  0.00868725  0.36150513  0.45615423    -0.78500
C58         C  0.94127476  0.38559700  0.37950876     0.84100
C59         C  0.98214452  0.33596231  0.31818150     0.83700
O60         O  0.97040586  0.33484543  0.42839709    -0.77400
C61         C  0.07742146  0.38934824  0.38536853     0.84500
O62         O  0.94334540  0.36400006  0.38184314    -0.77500
C63         C  0.03743758  0.44588234  0.31412552     0.84700
C64         C  0.03892071  0.45000513  0.43673051     0.85000
O65         O  0.02252517  0.44787180  0.41354036    -0.79900
O66         O  0.17744829  0.72274936  0.07422169    -0.77400
C67         C  0.16078615  0.71771478  0.18176157     0.83600
O68         O  0.18699476  0.64844968  0.11770702    -0.78500
O69         O  0.10489160  0.62560593  0.18377615    -0.80000
O70         O  0.07822926  0.66324994  0.08855435    -0.79800
O71         O  0.13969715  0.69811204  0.04446169    -0.78500
Zn72       Zn  0.17294704  0.70060311  0.11702329     1.55700
O73         O  0.07910882  0.66245862  0.14331967    -0.79900
Cd74       Cd  0.11499659  0.66398567  0.07620273     1.59700
Cd75       Cd  0.14560226  0.63561729  0.11824168     1.59600
O76         O  0.10407692  0.62783439  0.05171014    -0.79800
O77         O  0.13742568  0.66636208  0.11686303    -1.90300
Cd78       Cd  0.11519628  0.66236628  0.15664262     1.59900
O79         O  0.12813650  0.61151209  0.07922313    -0.79800
O80         O  0.13749812  0.69585404  0.18565808    -0.78500
C81         C  0.20789347  0.67241794  0.11845380     0.84100
C82         C  0.16363244  0.71913273  0.04775887     0.83700
O83         O  0.17593927  0.72234249  0.15678129    -0.77400
C84         C  0.06751071  0.66270916  0.11607723     0.84500
O85         O  0.20543833  0.69374987  0.11903639    -0.77500
C86         C  0.11187516  0.61006844  0.05615481     0.84700
C87         C  0.11228169  0.60765797  0.18117411     0.85000
O88         O  0.12842416  0.60958414  0.15868306    -0.79900
O89         O  0.47674763  0.12867126  0.34711494    -0.77400
C90         C  0.46612780  0.10719222  0.45589532     0.83600
O91         O  0.56108237  0.13983974  0.38426103    -0.78500
O92         O  0.50412560  0.05445718  0.45301478    -0.80000
O93         O  0.44041973  0.03198949  0.35852408    -0.79800
O94         O  0.47145290  0.09579910  0.31432567    -0.78500
Zn95       Zn  0.49443925  0.12286742  0.38859559     1.55700
O96         O  0.44114792  0.02894108  0.41339692    -0.79900
Cd97       Cd  0.47754556  0.06865093  0.34630424     1.59700
Cd98       Cd  0.53468470  0.09818199  0.38707295     1.59600
O99         O  0.50325142  0.05794745  0.32258971    -0.79800
O100        O  0.49547663  0.08865496  0.38717402    -1.90300
Cd101      Cd  0.47701933  0.06409468  0.42694318     1.59900
O102        O  0.54305849  0.08142359  0.34886859    -0.79800
O103        O  0.46519558  0.08402407  0.45850440    -0.78500
C104        C  0.55697287  0.15998335  0.38612538     0.84100
C105        C  0.47113808  0.11793408  0.31919502     0.83700
O106        O  0.47575527  0.12329040  0.43038829    -0.77400
C107        C  0.42961286  0.01953602  0.38604900     0.84500
O108        O  0.53287566  0.15648069  0.38880030    -0.77500
C109        C  0.52861333  0.06541677  0.32660441     0.84700
C110        C  0.53016812  0.06479505  0.45110980     0.85000
O111        O  0.54442060  0.08257721  0.42864026    -0.79900
O112        O  0.66065284  0.92553157  0.11226912    -0.77400
C113        C  0.66645625  0.93192839  0.22364276     0.83600
O114        O  0.57573880  0.91048670  0.15106317    -0.78500
O115        O  0.63290768  0.99080710  0.21690068    -0.80000
O116        O  0.69907720  0.02264954  0.13136130    -0.79800
O117        O  0.67432445  0.96470276  0.08221913    -0.78500
Zn118      Zn  0.64271297  0.92646114  0.15394273     1.55700
O119        O  0.69596786  0.01603614  0.18597640    -0.79900
Cd120      Cd  0.66412537  0.98672509  0.11453404     1.59700
Cd121      Cd  0.60371836  0.95217610  0.15077222     1.59600
O122        O  0.63904585  0.99934926  0.08869725    -0.79800
O123        O  0.64287916  0.96118244  0.15334591    -1.90300
Cd124      Cd  0.65900324  0.97985181  0.19526163     1.59900
O125        O  0.59738020  0.97105770  0.10983895    -0.79800
O126        O  0.66597211  0.95402495  0.22788323    -0.78500
C127        C  0.57966787  0.89006916  0.15119025     0.84100
C128        C  0.67073281  0.94030618  0.08587530     0.83700
O129        O  0.66014434  0.92046961  0.19612461    -0.77400
C130        C  0.70835784  0.03046306  0.16017241     0.84500
O131        O  0.60381427  0.89335831  0.15219338    -0.77500
C132        C  0.61317229  0.99029470  0.08958874     0.84700
C133        C  0.60800801  0.98427476  0.21105936     0.85000
O134        O  0.59417655  0.96863923  0.18822978    -0.79900
C135        C  0.71577618  0.33305409  0.38453680     0.81300
N136        N  0.71333088  0.35593643  0.38343872    -0.77000
C137        C  0.73599728  0.38132195  0.38034521     0.83700
N138        N  0.76124504  0.38378695  0.37883447    -0.77000
C139        C  0.76399488  0.36110962  0.38031875     0.83800
N140        N  0.74118269  0.33570849  0.38303546    -0.78700
C141        C  0.42906583  0.71387473  0.12397873     0.81300
N142        N  0.40359338  0.71107561  0.12322641    -0.77000
C143        C  0.38093122  0.68609426  0.11927231     0.83700
N144        N  0.38383033  0.66372315  0.11631794    -0.77000
C145        C  0.40920509  0.66626348  0.11663761     0.83800
N146        N  0.43182767  0.69142497  0.12036899    -0.78700
O147        O  0.37653799  0.42974842  0.06385613    -0.77400
C148        C  0.38485066  0.42428617  0.17283100     0.83600
O149        O  0.45306134  0.51535874  0.09304619    -0.78500
O150        O  0.47572894  0.45743418  0.16769768    -0.80000
O151        O  0.43407035  0.38996685  0.08284596    -0.79800
O152        O  0.40172395  0.41857701  0.03345551    -0.78500
Zn153      Zn  0.40023819  0.44939103  0.10261376     1.55700
O154        O  0.43556390  0.39382255  0.13722769    -0.79900
Cd155      Cd  0.43598282  0.42694982  0.06405128     1.59700
Cd156      Cd  0.46553386  0.48652961  0.09726576     1.59600
O157        O  0.47314487  0.45057413  0.03674384    -0.79800
O158        O  0.43436350  0.44800864  0.10192228    -1.90300
Cd159      Cd  0.43843104  0.43120135  0.14483467     1.59900
O160        O  0.48959688  0.49157305  0.05796178    -0.79800
O161        O  0.40634092  0.42219052  0.17640357    -0.78500
C162        C  0.42918905  0.51248823  0.09466194     0.84100
C163        C  0.38014571  0.42036661  0.03783610     0.83700
O164        O  0.37971826  0.43369698  0.14605441    -0.77400
C165        C  0.43381782  0.38045385  0.11221680     0.84500
O166        O  0.40776779  0.48882047  0.09805238    -0.77500
C167        C  0.49128361  0.47611866  0.03770448     0.84700
C168        C  0.49371019  0.48261649  0.16130094     0.85000
O169        O  0.49173580  0.49627596  0.13654922    -0.79900
O170        O  0.76904777  0.61800812  0.31320113    -0.77400
C171        C  0.75610417  0.62637002  0.41883977     0.83600
O172        O  0.69102455  0.53292585  0.35286756    -0.78500
O173        O  0.66537023  0.59049397  0.41088459    -0.80000
O174        O  0.71103854  0.65810349  0.31539761    -0.79800
O175        O  0.74418437  0.62833716  0.27776244    -0.78500
Zn176      Zn  0.74342415  0.59916287  0.35282177     1.55700
O177        O  0.70025447  0.65210624  0.36871860    -0.79900
Cd178      Cd  0.70991541  0.62091462  0.30575363     1.59700
Cd179      Cd  0.67842000  0.56149236  0.34824758     1.59600
O180        O  0.67369413  0.59665456  0.27916687    -0.79800
O181        O  0.70923609  0.60025952  0.34814543    -1.90300
Cd182      Cd  0.70237215  0.61756627  0.38586921     1.59900
O183        O  0.65585729  0.55583130  0.30668719    -0.79800
O184        O  0.73494537  0.62924502  0.41884118    -0.78500
C185        C  0.71491575  0.53603175  0.35660106     0.84100
C186        C  0.76568470  0.62668935  0.28480701     0.83700
O187        O  0.76151258  0.61586208  0.39528448    -0.77400
C188        C  0.70499907  0.66581874  0.34128304     0.84500
O189        O  0.73627061  0.55981862  0.35680639    -0.77500
C190        C  0.65525903  0.57127418  0.28310085     0.84700
C191        C  0.64803729  0.56505277  0.40757249     0.85000
O192        O  0.65092636  0.55154266  0.38567134    -0.79900
C193        C  0.59297671  0.52830944  0.24512053     0.30800
C194        C  0.56811564  0.50368869  0.24172109    -0.35500
C195        C  0.55019758  0.50427065  0.21765900     0.16800
C196        C  0.55638726  0.52751842  0.19816508     0.22600
C197        C  0.58129263  0.55229775  0.20170531    -0.33600
C198        C  0.59928445  0.55171725  0.22588573     0.16700
O199        O  0.61226127  0.53225678  0.26660435    -0.25600
C200        C  0.63134561  0.55851513  0.26128575     0.06500
C201        C  0.62448132  0.57179328  0.23612441    -0.30500
O202        O  0.53699966  0.52307518  0.17642028    -0.22400
C203        C  0.51814984  0.49669867  0.18216572    -0.02400
C204        C  0.52520879  0.48399232  0.20769769    -0.16800
H205        H  0.56311852  0.48530625  0.25682645     0.21200
H206        H  0.58632511  0.57066205  0.18655850     0.19600
H207        H  0.63589926  0.59314894  0.22742798     0.19500
H208        H  0.51401410  0.46272741  0.21681074     0.15400
C209        C  0.59290512  0.54319424  0.46245358     0.30800
C210        C  0.57664087  0.54607825  0.48552203    -0.35500
C211        C  0.55453423  0.52105305  0.99481978     0.16800
C212        C  0.54624389  0.49576062  0.98235657     0.22600
C213        C  0.56020189  0.49390478  0.45904781    -0.33600
C214        C  0.58479845  0.51799394  0.44978552     0.16700
O215        O  0.61641923  0.56308404  0.44999271    -0.25600
C216        C  0.62353325  0.55050823  0.42894037     0.06500
C217        C  0.60462084  0.52244053  0.42788389    -0.30500
O218        O  0.52253614  0.47608128  0.99508584    -0.22400
C219        C  0.51569085  0.48918148  0.01586300    -0.02400
C220        C  0.53494979  0.51710854  0.01652296    -0.16800
H221        H  0.58265312  0.56569786  0.49562490     0.21200
H222        H  0.55416260  0.47429647  0.44890820     0.19600
H223        H  0.60519076  0.50756358  0.41270206     0.19500
H224        H  0.53468857  0.53238017  0.03127814     0.15400
C225        C  0.42979205  0.61772729  0.10413985     0.30800
C226        C  0.44823879  0.60828947  0.09900903    -0.35500
C227        C  0.43651660  0.57977443  0.09633195     0.16800
C228        C  0.40857657  0.56176458  0.09856661     0.22600
C229        C  0.39013826  0.57121742  0.10341897    -0.33600
C230        C  0.40184954  0.59969855  0.10611232     0.16700
O231        O  0.43623752  0.64348261  0.10785814    -0.25600
C232        C  0.41207400  0.64193339  0.11213217     0.06500
C233        C  0.38999329  0.61516966  0.11130089    -0.30500
O234        O  0.40219274  0.53582722  0.09717156    -0.22400
C235        C  0.42634557  0.53718657  0.09390703    -0.02400
C236        C  0.44841735  0.56404159  0.09304761    -0.16800
H237        H  0.47021710  0.62214930  0.09770020     0.21200
H238        H  0.36821754  0.55727778  0.10552690     0.19600
H239        H  0.36834500  0.60814786  0.11416347     0.19500
H240        H  0.47012381  0.57085736  0.09164007     0.15400
C241        C  0.71506116  0.43062596  0.37405480     0.30800
C242        C  0.69638537  0.44033416  0.37256085    -0.35500
C243        C  0.70790371  0.46894194  0.36820046     0.16800
C244        C  0.73586580  0.48680012  0.36567393     0.22600
C245        C  0.75452503  0.47708536  0.36716098    -0.33600
C246        C  0.74300783  0.44848491  0.37136406     0.16700
O247        O  0.70883348  0.40467180  0.37772999    -0.25600
C248        C  0.73311936  0.40594750  0.37739222     0.06500
C249        C  0.75510047  0.43268271  0.37345360    -0.30500
O250        O  0.74211984  0.51273591  0.36144623    -0.22400
C251        C  0.71783584  0.51146888  0.36103360    -0.02400
C252        C  0.69581941  0.48474484  0.36521086    -0.16800
H253        H  0.67441859  0.42654586  0.37445521     0.21200
H254        H  0.77647265  0.49084842  0.36500487     0.19600
H255        H  0.77679880  0.43944835  0.37218128     0.19500
H256        H  0.67409372  0.47798347  0.36586118     0.15400
C257        C  0.53246841  0.81974641  0.14277258     0.30800
C258        C  0.52389266  0.79219312  0.13689597    -0.35500
C259        C  0.49538015  0.77437143  0.13466271     0.16800
C260        C  0.47659652  0.78306528  0.13802680     0.22600
C261        C  0.48514856  0.81056314  0.14402860    -0.33600
C262        C  0.51363576  0.82837459  0.14618194     0.16700
O263        O  0.55813476  0.84007035  0.14475597    -0.25600
C264        C  0.55573201  0.86204475  0.14943179     0.06500
C265        C  0.52848747  0.85593039  0.15060938    -0.30500
O266        O  0.45098274  0.76306381  0.13465487    -0.22400
C267        C  0.45328692  0.74117526  0.12911154    -0.02400
C268        C  0.48047130  0.74700823  0.12885209    -0.16800
H269        H  0.53845138  0.78520338  0.13390731     0.21200
H270        H  0.47059857  0.81764817  0.14649106     0.19600
H271        H  0.52078171  0.86989215  0.15360435     0.19500
H272        H  0.48810696  0.73314411  0.12484029     0.15400
C273        C  0.62228141  0.21866097  0.38283366     0.30800
C274        C  0.65104868  0.23304010  0.38129179    -0.35500
C275        C  0.66384007  0.26162846  0.38313636     0.16800
C276        C  0.64933464  0.27524964  0.38597003     0.22600
C277        C  0.62044058  0.26083520  0.38733050    -0.33600
C278        C  0.60761092  0.23211333  0.38576181     0.16700
O279        O  0.60637108  0.19180031  0.38239851    -0.25600
C280        C  0.58109616  0.18780549  0.38511871     0.06500
C281        C  0.58052303  0.21216446  0.38723584    -0.30500
O282        O  0.66562034  0.30211278  0.38720974    -0.22400
C283        C  0.69084889  0.30566771  0.38525753    -0.02400
C284        C  0.69095033  0.28115558  0.38275067    -0.16800
H285        H  0.66267702  0.22259416  0.37914789     0.21200
H286        H  0.60881469  0.27125063  0.38972579     0.19600
H287        H  0.56283049  0.21473057  0.38983675     0.19500
H288        H  0.70844933  0.27820248  0.38058870     0.15400
C289        C  0.59614780  0.02954771  0.03381531     0.30800
C290        C  0.60002324  0.04824299  0.50775063    -0.35500
C291        C  0.57644538  0.04957131  0.49821383     0.16800
C292        C  0.55130801  0.03429440  0.01282987     0.22600
C293        C  0.54713658  0.01419746  0.03744537    -0.33600
C294        C  0.57036708  0.01246534  0.04704831     0.16700
O295        O  0.61483860  0.02390342  0.04635652    -0.25600
C296        C  0.60069264  0.00283666  0.06774214     0.06500
C297        C  0.57297186  0.99493918  0.06911218    -0.30500
O298        O  0.53199373  0.03794467  0.99844789    -0.22400
C299        C  0.54447901  0.05568637  0.47498986    -0.02400
C300        C  0.57257852  0.06492542  0.47391714    -0.16800
H301        H  0.61980100  0.06140146  0.49619360     0.21200
H302        H  0.52699243  0.00031521  0.04773093     0.19600
H303        H  0.55706672  0.97877461  0.08449528     0.19500
H304        H  0.58771600  0.07995104  0.45680086     0.15400
C305        C  0.54690285  0.03012233  0.27367165     0.30800
C306        C  0.54265906  0.01054661  0.25098857    -0.35500
C307        C  0.56514145  0.00692176  0.24542060     0.16800
C308        C  0.59015226  0.02159457  0.26092885     0.22600
C309        C  0.59445844  0.04129430  0.28339667    -0.33600
C310        C  0.57197896  0.04487512  0.28901213     0.16700
O311        O  0.52835915  0.03591737  0.28388614    -0.25600
C312        C  0.54181928  0.05467440  0.30599281     0.06500
C313        C  0.56905116  0.06112149  0.30997074    -0.30500
O314        O  0.60841717  0.01508452  0.25175496    -0.22400
C315        C  0.59488802  0.99594721  0.23012707    -0.02400
C316        C  0.56789516  0.99004893  0.22525226    -0.16800
H317        H  0.52309599  0.99872007  0.23882245     0.21200
H318        H  0.61392534  0.05288063  0.29585104     0.19600
H319        H  0.58418251  0.07497211  0.32689205     0.19500
H320        H  0.55272749  0.97585378  0.20863285     0.15400
C321        C  0.26604239  0.66455803  0.11617614     0.30800
C322        C  0.28042571  0.65018958  0.11438033    -0.35500
C323        C  0.30920214  0.66612516  0.11564659     0.16800
C324        C  0.32289039  0.69426703  0.11842260     0.22600
C325        C  0.30851173  0.70864772  0.11998321    -0.33600
C326        C  0.27974048  0.69271374  0.11880299     0.16700
O327        O  0.23909263  0.65374051  0.11585480    -0.25600
C328        C  0.23543594  0.67523826  0.11827281     0.06500
C329        C  0.26003480  0.70003277  0.12015209    -0.30500
O330        O  0.34980843  0.70499849  0.11989479    -0.22400
C331        C  0.35346917  0.68347064  0.11803106    -0.02400
C332        C  0.32890166  0.65874507  0.11524135    -0.16800
H333        H  0.26990579  0.62809860  0.11242506     0.21200
H334        H  0.31902212  0.73069548  0.12227076     0.19600
H335        H  0.26294033  0.72042572  0.12226642     0.19500
H336        H  0.32599436  0.63830255  0.11356844     0.15400
C337        C  0.87094866  0.36386609  0.37946705     0.30800
C338        C  0.84272703  0.34466800  0.38041126    -0.35500
C339        C  0.82507458  0.35557056  0.37933098     0.16800
C340        C  0.83453284  0.38348528  0.37741380     0.22600
C341        C  0.86281106  0.40274363  0.37641229    -0.33600
C342        C  0.88048684  0.39180500  0.37753924     0.16700
O343        O  0.89097887  0.35808318  0.38040531    -0.25600
C344        C  0.91371855  0.38259826  0.37904198     0.06500
C345        C  0.90847686  0.40439091  0.37724281    -0.30500
O346        O  0.81435582  0.38907756  0.37720847    -0.22400
C347        C  0.79168186  0.36442960  0.37906631    -0.02400
C348        C  0.79711817  0.34281689  0.38036286    -0.16800
H349        H  0.83507130  0.32273207  0.38205597     0.21200
H350        H  0.87047736  0.42468761  0.37504646     0.19600
H351        H  0.92313146  0.42624116  0.37596987     0.19500
H352        H  0.78261125  0.32094391  0.38217903     0.15400
C353        C  0.07515641  0.50568149  0.48759301     0.30800
C354        C  0.09432976  0.52343441  0.01010164    -0.35500
C355        C  0.09521764  0.54810137  0.01669569     0.16800
C356        C  0.07806580  0.55643518  0.00178877     0.22600
C357        C  0.06094736  0.54012258  0.47710080    -0.33600
C358        C  0.05936553  0.51500067  0.47109743     0.16700
O359        O  0.07006087  0.48142030  0.47825303    -0.25600
C360        C  0.05071838  0.47512979  0.45544078     0.06500
C361        C  0.04338190  0.49532495  0.45000217    -0.30500
O362        O  0.08184663  0.57981051  0.01279821    -0.22400
C363        C  0.10174558  0.58645682  0.03499675    -0.02400
C364        C  0.11081355  0.56748323  0.03823104    -0.16800
H365        H  0.10777748  0.51713273  0.02238889     0.21200
H366        H  0.04816141  0.54695554  0.46416417     0.19600
H367        H  0.02842145  0.49548680  0.43282123     0.19500
H368        H  0.12620211  0.56755968  0.05487350     0.15400
C369        C  0.05809449  0.50894784  0.27172800     0.30800
C370        C  0.05872632  0.53403108  0.26526457    -0.35500
C371        C  0.07697376  0.55154709  0.24073057     0.16800
C372        C  0.09347131  0.54480069  0.22372261     0.22600
C373        C  0.09293741  0.51969595  0.23031261    -0.33600
C374        C  0.07460808  0.50210990  0.25489884     0.16700
O375        O  0.04267568  0.48977376  0.29384993    -0.25600
C376        C  0.04921979  0.47024486  0.29132920     0.06500
C377        C  0.06905753  0.47674101  0.26744603    -0.30500
O378        O  0.10842462  0.56393623  0.20117358    -0.22400
C379        C  0.10148809  0.58321411  0.20383569    -0.02400
C380        C  0.08201315  0.57663715  0.22812569    -0.16800
H381        H  0.04578441  0.53944877  0.27840203     0.21200
H382        H  0.10577004  0.51421403  0.21706309     0.19600
H383        H  0.07834911  0.46484422  0.26081864     0.19500
H384        H  0.07246083  0.58827120  0.23486945     0.15400
C385        C  0.17409419  0.37354539  0.40399367     0.30800
C386        C  0.14792586  0.36404584  0.41756429    -0.35500
C387        C  0.13297843  0.37621924  0.40420776     0.16800
C388        C  0.14278855  0.39590701  0.37868996     0.22600
C389        C  0.16924355  0.40595067  0.36580563    -0.33600
C390        C  0.18450084  0.39433554  0.37979331     0.16700
O391        O  0.18957195  0.36206554  0.40890865    -0.25600
C392        C  0.21077799  0.37629128  0.38847356     0.06500
C393        C  0.20872770  0.39687853  0.37013897    -0.30500
O394        O  0.12453393  0.40290420  0.36820918    -0.22400
C395        C  0.10292639  0.38790195  0.38774206    -0.02400
C396        C  0.10710886  0.37110251  0.41076094    -0.16800
H397        H  0.13928645  0.34742063  0.43616107     0.21200
H398        H  0.17700643  0.42103266  0.34542314     0.19600
H399        H  0.22087175  0.40875182  0.34892825     0.19500
H400        H  0.09282652  0.35666821  0.42903044     0.15400
C401        C  0.34250786  0.40689389  0.46322542     0.30800
C402        C  0.33769585  0.40318882  0.42945817    -0.35500
C403        C  0.31270821  0.40033537  0.41752633     0.16800
C404        C  0.29347125  0.40078949  0.43726695     0.22600
C405        C  0.29851767  0.40503572  0.47099987    -0.33600
C406        C  0.32358656  0.40798345  0.48296848     0.16700
O407        O  0.36483672  0.41292926  0.98001857    -0.25600
C408        C  0.35920206  0.41288468  0.01150734     0.06500
C409        C  0.33272068  0.40841507  0.01620246    -0.30500
O410        O  0.27023931  0.39452748  0.42148316    -0.22400
C411        C  0.27474611  0.39032440  0.39095220    -0.02400
C412        C  0.30110805  0.39400294  0.38735073    -0.16800
H413        H  0.35215985  0.40196285  0.41363728     0.21200
H414        H  0.28358563  0.40520289  0.48703043     0.19600
H415        H  0.32310522  0.40793813  0.03902219     0.19500
H416        H  0.31004628  0.39012165  0.36674102     0.15400
C417        C  0.33752887  0.41507926  0.23372083     0.30800
C418        C  0.31941316  0.42052954  0.25051275    -0.35500
C419        C  0.30563835  0.40262001  0.27756165     0.16800
C420        C  0.30910697  0.38057043  0.28707145     0.22600
C421        C  0.32776120  0.37559854  0.27087470    -0.33600
C422        C  0.34181527  0.39372416  0.24415904     0.16700
O423        O  0.35171963  0.42846854  0.20700144    -0.25600
C424        C  0.36561786  0.41579612  0.20060774     0.06500
C425        C  0.36040443  0.39417339  0.22306393    -0.30500
O426        O  0.29228586  0.36492809  0.31096065    -0.22400
C427        C  0.27840369  0.37753320  0.31744820    -0.02400
C428        C  0.28584717  0.40111296  0.29755148    -0.16800
H429        H  0.31582344  0.43719922  0.24257672     0.21200
H430        H  0.33060647  0.35833408  0.27809604     0.19600
H431        H  0.36867136  0.38041031  0.22331585     0.19500
H432        H  0.27676362  0.41418657  0.29666115     0.15400
C433        C  0.96067135  0.66200252  0.10856930     0.30800
C434        C  0.97599658  0.65374678  0.09026365    -0.35500
C435        C  0.00094895  0.65794141  0.10419958     0.16800
C436        C  0.00992349  0.66906339  0.13437624     0.22600
C437        C  0.99467951  0.67741679  0.15254968    -0.33600
C438        C  0.96992851  0.67353177  0.13846981     0.16700
O439        O  0.93854629  0.66291425  0.09850124    -0.25600
C440        C  0.93320002  0.67489334  0.12235387     0.06500
C441        C  0.95232663  0.68214497  0.14769171    -0.30500
O442        O  0.03409950  0.67183668  0.14250746    -0.22400
C443        C  0.04109860  0.66276279  0.11705578    -0.02400
C444        C  0.02120516  0.65388964  0.09240673    -0.16800
H445        H  0.96945628  0.64564813  0.06616547     0.21200
H446        H  0.00211510  0.68718663  0.17565076     0.19600
H447        H  0.95462223  0.69454980  0.16816351     0.19500
H448        H  0.02166487  0.64574820  0.06917650     0.15400
C449        C  0.85388221  0.65207595  0.18690203     0.30800
C450        C  0.85086074  0.65189304  0.22122725    -0.35500
C451        C  0.82415477  0.64362016  0.23269474     0.16800
C452        C  0.80217411  0.63640458  0.21174184     0.22600
C453        C  0.80504999  0.63585354  0.17780489    -0.33600
C454        C  0.83147153  0.64370953  0.16648816     0.16700
O455        O  0.87724546  0.66204877  0.17027080    -0.25600
C456        C  0.86959067  0.65967761  0.13871486     0.06500
C457        C  0.84112381  0.64780562  0.13529518    -0.30500
O458        O  0.77932830  0.63049699  0.22711344    -0.22400
C459        C  0.78634310  0.63347405  0.25864917    -0.02400
C460        C  0.81404159  0.64148478  0.26364240    -0.16800
H461        H  0.86819846  0.65856621  0.23767676     0.21200
H462        H  0.78797653  0.63042295  0.16119511     0.19600
H463        H  0.82913801  0.64471743  0.11322345     0.19500
H464        H  0.82506532  0.64524031  0.28664589     0.15400
C465        C  0.83429828  0.65421487  0.02877330     0.30800
C466        C  0.82087210  0.63135361  0.50602361    -0.35500
C467        C  0.80279109  0.63510444  0.48489599     0.16800
C468        C  0.79657280  0.65570873  0.48812239     0.22600
C469        C  0.80890536  0.67762765  0.01161268    -0.33600
C470        C  0.82786250  0.67465642  0.03215458     0.16700
O471        O  0.85333089  0.65583316  0.04956775    -0.25600
C472        C  0.85938434  0.67767446  0.06647881     0.06500
C473        C  0.84433906  0.69037226  0.05660149    -0.30500
O474        O  0.77913143  0.65539363  0.46553919    -0.22400
C475        C  0.77458535  0.63463777  0.44730729    -0.02400
C476        C  0.78883658  0.62136190  0.45812046    -0.16800
H477        H  0.82579376  0.61529522  0.50294378     0.21200
H478        H  0.80410244  0.69380335  0.01432279     0.19600
H479        H  0.84625237  0.70912990  0.06511993     0.19500
H480        H  0.78870915  0.60396099  0.44784600     0.15400
C481        C  0.69095119  0.76150811  0.36264055     0.30800
C482        C  0.67601097  0.73263845  0.36537252    -0.35500
C483        C  0.68823821  0.71891353  0.35190336     0.16800
C484        C  0.71318448  0.73249712  0.33580452     0.22600
C485        C  0.72798429  0.76149589  0.33256285    -0.33600
C486        C  0.71602986  0.77532581  0.34685702     0.16700
O487        O  0.68578549  0.77796217  0.37913516    -0.25600
C488        C  0.70760757  0.80289067  0.37387472     0.06500
C489        C  0.72710202  0.80239254  0.35390357    -0.30500
O490        O  0.72203229  0.71557841  0.32820316    -0.22400
C491        C  0.70256997  0.69093062  0.33995580    -0.02400
C492        C  0.68117951  0.69191186  0.35494868    -0.16800
H493        H  0.65720745  0.72166406  0.37953696     0.20200
H494        H  0.74836993  0.77254168  0.32191347     0.19600
H495        H  0.74794590  0.81882309  0.34918573     0.19500
H496        H  0.66364563  0.67527215  0.36782633     0.15400
C497        C  0.68299289  0.87525074  0.48591402     0.30800
C498        C  0.66965401  0.87256851  0.51543285    -0.35500
C499        C  0.67361027  0.89426348  0.03047724     0.16800
C500        C  0.68753985  0.91937999  0.01348708     0.22600
C501        C  0.69889867  0.92139132  0.98220102    -0.33600
C502        C  0.69939452  0.90063824  0.47032834     0.16700
O503        O  0.68377707  0.85513383  0.47194523    -0.25600
C504        C  0.70058505  0.86725280  0.44649169     0.06500
C505        C  0.71113340  0.89572652  0.44429361    -0.30500
O506        O  0.68905680  0.93968331  0.03041481    -0.22400
C507        C  0.67623694  0.92712739  0.05869488    -0.02400
C508        C  0.66638138  0.89895435  0.05975326    -0.16800
H509        H  0.65749920  0.85274710  0.52828273     0.21200
H510        H  0.71065715  0.94097776  0.96877739     0.19600
H511        H  0.72688102  0.91076182  0.42779021     0.19500
H512        H  0.65503911  0.88386155  0.07932113     0.15400
C513        C  0.68971797  0.88271782  0.34474265     0.30800
C514        C  0.68515577  0.90452422  0.33502856    -0.35500
C515        C  0.68141975  0.90789647  0.30123048     0.16800
C516        C  0.68200725  0.89090907  0.27856660     0.22600
C517        C  0.68679963  0.86926857  0.28828562    -0.33600
C518        C  0.69055777  0.86592343  0.32205161     0.16700
O519        O  0.69440659  0.87626653  0.37490669    -0.25600
C520        C  0.69826822  0.85496303  0.37166995     0.06500
C521        C  0.69613216  0.84770473  0.33912343    -0.30500
O522        O  0.67727608  0.89728134  0.24834788    -0.22400
C523        C  0.67379452  0.91880723  0.25154794    -0.02400
C524        C  0.67625621  0.92635712  0.28395274    -0.16800
H525        H  0.68462093  0.91795798  0.35258935     0.21200
H526        H  0.68750288  0.85591971  0.27073180     0.19600
H527        H  0.69912466  0.83211566  0.32887570     0.19500
H528        H  0.67388213  0.94263340  0.29347099     0.15400
C529        C  0.81603577  0.12907284  0.18930533     0.30800
C530        C  0.79722165  0.10300725  0.20320142    -0.35500
C531        C  0.77263180  0.08779263  0.18586122     0.16800
C532        C  0.76691891  0.09730055  0.15651151     0.22600
C533        C  0.78542266  0.12378670  0.14308164    -0.33600
C534        C  0.80991178  0.13924154  0.16076856     0.16700
O535        O  0.84193841  0.14442424  0.19833252    -0.25600
C536        C  0.85261396  0.16532304  0.17596144     0.06500
C537        C  0.83334883  0.16322798  0.15224734    -0.30500
O538        O  0.74371828  0.07854175  0.14309401    -0.22400
C539        C  0.73429965  0.05686495  0.16444475    -0.02400
C540        C  0.75140638  0.06166737  0.19157682    -0.16800
H541        H  0.80209849  0.09448752  0.22510699     0.21200
H542        H  0.78161710  0.13131838  0.11965453     0.19600
H543        H  0.83735032  0.17511283  0.12918719     0.19500
H544        H  0.74896479  0.04752725  0.21208006     0.15400
C545        C  0.93335864  0.26508246  0.20366228     0.30800
C546        C  0.95657253  0.29016896  0.21164365    -0.35500
C547        C  0.95850218  0.29762154  0.24434665     0.16800
C548        C  0.93876920  0.28165114  0.26758048     0.22600
C549        C  0.91544154  0.25662441  0.25952623    -0.33600
C550        C  0.91359111  0.24907171  0.22682863     0.16700
O551        O  0.92895294  0.25300581  0.17551853    -0.25600
C552        C  0.90588355  0.22888673  0.18030498     0.06500
C553        C  0.89534967  0.22546083  0.21193867    -0.30500
O554        O  0.94470190  0.29256652  0.29667345    -0.22400
C555        C  0.96870572  0.31581882  0.29218459    -0.02400
C556        C  0.97825229  0.31991936  0.26002708    -0.16800
H557        H  0.97245846  0.30263567  0.19379229     0.21200
H558        H  0.90008494  0.24363341  0.27769012     0.19600
H559        H  0.87817912  0.20732486  0.22325885     0.19500
H560        H  0.99675207  0.33714711  0.24955552     0.15400
C561        C  0.95282122  0.28204482  0.01334021     0.30800
C562        C  0.93697122  0.25408163  0.02284464    -0.35500
C563        C  0.93385299  0.24769242  0.05668942     0.16800
C564        C  0.94505116  0.26733903  0.07987277     0.22600
C565        C  0.96112927  0.29542923  0.07033071    -0.33600
C566        C  0.97145778  0.30092205  0.53150913     0.16700
O567        O  0.94736010  0.30294865  0.48762656    -0.25600
C568        C  0.97399685  0.32106185  0.48361525     0.06500
C569        C  0.98992927  0.32074653  0.51020427    -0.30500
O570        O  0.93937315  0.25643085  0.11026748    -0.22400
C571        C  0.92467563  0.22943725  0.10632132    -0.02400
C572        C  0.92067288  0.22298613  0.07347077    -0.16800
H573        H  0.92788037  0.23834191  0.00506052     0.21200
H574        H  0.97039867  0.31112573  0.08813619     0.19600
H575        H  0.01195394  0.33317451  0.51322641     0.19500
H576        H  0.90954082  0.20285258  0.06338324     0.15400
C577        C  0.32305831  0.91430068  0.37792888     0.30800
C578        C  0.34798794  0.92956044  0.36061056    -0.35500
C579        C  0.36793091  0.95406928  0.37433929     0.16800
C580        C  0.36389414  0.96260069  0.40362822     0.22600
C581        C  0.33890259  0.94739495  0.42089028    -0.33600
C582        C  0.31872024  0.92316234  0.40678685     0.16700
O583        O  0.30051034  0.89308819  0.36704319    -0.25600
C584        C  0.28126740  0.88803681  0.38908273     0.06500
C585        C  0.29150492  0.90626559  0.41434932    -0.30500
O586        O  0.38502112  0.98644372  0.41163632    -0.22400
C587        C  0.40271812  0.99361863  0.38689985    -0.02400
C588        C  0.39306649  0.97426657  0.36286905    -0.16800
H589        H  0.35106908  0.92345553  0.33714423     0.21200
H590        H  0.33503000  0.95460847  0.44305593     0.19600
H591        H  0.27991525  0.90880479  0.43322135     0.19500
H592        H  0.40312674  0.97496833  0.34031566     0.15400
C593        C  0.22581533  0.80436906  0.44304548     0.30800
C594        C  0.22937548  0.79781319  0.47600890    -0.35500
C595        C  0.20573570  0.77495787  0.98969530     0.16800
C596        C  0.18319783  0.75754071  0.47395391     0.22600
C597        C  0.17978014  0.76392081  0.44108986    -0.33600
C598        C  0.20191869  0.78765401  0.42653595     0.16700
O599        O  0.24273245  0.82690334  0.42525965    -0.25600
C600        C  0.22961979  0.82427557  0.39672354     0.06500
C601        C  0.20408962  0.80012007  0.39643518    -0.30500
O602        O  0.16432471  0.73635878  0.99046945    -0.22400
C603        C  0.17618471  0.73951728  0.01982925    -0.02400
C604        C  0.20202020  0.76318465  0.02071095    -0.16800
H605        H  0.24561659  0.81272655  0.98956037     0.21200
H606        H  0.16095817  0.75147814  0.42789983     0.19600
H607        H  0.18818248  0.79364272  0.37800144     0.19500
H608        H  0.21607680  0.77052203  0.04118199     0.15400
C609        C  0.18880629  0.79964248  0.28259533     0.30800
C610        C  0.17091630  0.78875306  0.25592087    -0.35500
C611        C  0.17310297  0.76890447  0.23896493     0.16800
C612        C  0.19193863  0.76064109  0.24732908     0.22600
C613        C  0.20966418  0.77136176  0.27420835    -0.33600
C614        C  0.20714359  0.79087063  0.29151529     0.16700
O615        O  0.19098758  0.81917312  0.30102234    -0.25600
C616        C  0.21060535  0.82261646  0.32248133     0.06500
C617        C  0.22137456  0.80551545  0.31774417    -0.30500
O618        O  0.19058447  0.74199519  0.22791003    -0.22400
C619        C  0.17044495  0.73810071  0.20708128    -0.02400
C620        C  0.15874394  0.75417353  0.21284552    -0.16800
H621        H  0.15635494  0.79539914  0.24877986     0.21200
H622        H  0.22444966  0.76495273  0.28113551     0.19600
H623        H  0.23821736  0.80500473  0.33068866     0.19500
H624        H  0.14203244  0.75479907  0.19972998     0.15400
C625        C  0.43630194  0.31877145  0.11839526     0.30800
C626        C  0.44563192  0.30036473  0.11233619    -0.35500
C627        C  0.43274233  0.27488849  0.13036296     0.16800
C628        C  0.41162949  0.26773991  0.15217289     0.22600
C629        C  0.40269949  0.28627535  0.15868022    -0.33600
C630        C  0.41594477  0.31186780  0.14124784     0.16700
O631        O  0.44503313  0.34355252  0.10407780    -0.25600
C632        C  0.43025390  0.35266250  0.11839256     0.06500
C633        C  0.41202019  0.33384266  0.14177363    -0.30500
O634        O  0.39993104  0.24169219  0.16286960    -0.22400
C635        C  0.41422195  0.23205251  0.14863194    -0.02400
C636        C  0.43502720  0.25193160  0.12829531    -0.16800
H637        H  0.46142537  0.30530488  0.09431864     0.21200
H638        H  0.38598263  0.28081816  0.17551881     0.19600
H639        H  0.39779843  0.33607150  0.15690164     0.19500
H640        H  0.44763329  0.24889278  0.11133674     0.15400
C641        C  0.44182660  0.17851168  0.21653686     0.30800
C642        C  0.44028029  0.17336475  0.25077203    -0.35500
C643        C  0.45193656  0.15771174  0.26348582     0.16800
C644        C  0.46411824  0.14762201  0.24386274     0.22600
C645        C  0.46625530  0.15333249  0.20975229    -0.33600
C646        C  0.45469478  0.16907239  0.19705727     0.16700
O647        O  0.42943125  0.18975310  0.19916598    -0.25600
C648        C  0.43453207  0.18772485  0.16802246     0.06500
C649        C  0.45054427  0.17530253  0.16540492    -0.30500
O650        O  0.47204626  0.13194962  0.26061594    -0.22400
C651        C  0.46511262  0.13220925  0.29148588    -0.02400
C652        C  0.45278510  0.14814576  0.29474893    -0.16800
H653        H  0.42969820  0.18009717  0.26627299     0.21200
H654        H  0.47531481  0.14513186  0.19402627     0.19600
H655        H  0.45626489  0.16940500  0.14353092     0.19500
H656        H  0.44503560  0.15163479  0.31686499     0.15400
C657        C  0.45189223  0.14254499  0.01158165     0.30800
C658        C  0.45399482  0.16556425  0.02598193    -0.35500
C659        C  0.43968323  0.16040079  0.05549144     0.16800
C660        C  0.42389605  0.13427741  0.06969172     0.22600
C661        C  0.42225339  0.11125942  0.05561365    -0.33600
C662        C  0.43720546  0.11607347  0.52886021     0.16700
O663        O  0.46439592  0.14243071  0.48693076    -0.25600
C664        C  0.45667643  0.11614445  0.48351890     0.06500
C665        C  0.43987505  0.09879880  0.50901277    -0.30500
O666        O  0.41014553  0.13400446  0.09559004    -0.22400
C667        C  0.41786556  0.16038026  0.09837947    -0.02400
C668        C  0.43623604  0.17768271  0.07420853    -0.16800
H669        H  0.46565674  0.18610968  0.01463154     0.21200
H670        H  0.40909168  0.09006362  0.56815131     0.19600
H671        H  0.43070867  0.07666896  0.51219204     0.19500
H672        H  0.44427435  0.19958332  0.06977088     0.15400
N673        N  0.41797872  0.19050076  0.64230680    -0.02400
C674        C  0.40225017  0.20222481  0.64638678     0.00200
C675        C  0.37736693  0.18757024  0.63050490    -0.22700
C676        C  0.37832638  0.16706312  0.61482867    -0.22900
C677        C  0.40360994  0.16963879  0.62195843     0.00100
H678        H  0.36201851  0.19369138  0.62646893     0.13900
H679        H  0.36377009  0.15416747  0.59678442     0.13900
N680        N  0.23823856  0.84710879  0.87031401    -0.02400
C681        C  0.25397547  0.87438639  0.87589994     0.00200
C682        C  0.24710913  0.88943409  0.85349133    -0.22700
C683        C  0.22784294  0.87130170  0.83260894    -0.22900
C684        C  0.22344241  0.84564646  0.84278562     0.00100
H685        H  0.25809248  0.91159988  0.84948914     0.13900
H686        H  0.22055937  0.87668253  0.81014251     0.13900
N687        N  0.89819963  0.20715951  0.65747821    -0.02400
C688        C  0.88268939  0.17932973  0.66256237     0.00200
C689        C  0.88972000  0.16657080  0.63978114    -0.22700
C690        C  0.90890055  0.18685657  0.61920101    -0.22900
C691        C  0.91353484  0.21151240  0.63031047     0.00100
H692        H  0.87882827  0.14482481  0.63528574     0.13900
H693        H  0.91602158  0.18379807  0.59630497     0.13900
N694        N  0.70305921  0.83973804  0.89834155    -0.02400
C695        C  0.71213437  0.82129440  0.89725426     0.00200
C696        C  0.72241228  0.81846433  0.92737530    -0.22700
C697        C  0.71944135  0.83523464  0.94789434    -0.22900
C698        C  0.70767310  0.84817486  0.92978175     0.00100
H699        H  0.72953529  0.80419294  0.93429942     0.13900
H700        H  0.72390010  0.83663301  0.97390342     0.13900
N701        N  0.89001885  0.67345110  0.61242385    -0.02400
C702        C  0.91791110  0.68720608  0.61516825     0.00200
C703        C  0.92910972  0.71013290  0.59370153    -0.22700
C704        C  0.90782817  0.71003936  0.57637629    -0.22900
C705        C  0.88419066  0.68710489  0.58777461     0.00100
H706        H  0.95067774  0.72314216  0.58772258     0.13900
H707        H  0.90973966  0.72315983  0.55496697     0.13900
N708        N  0.25206096  0.37682620  0.86903374    -0.02400
C709        C  0.22466873  0.36287929  0.87617794     0.00200
C710        C  0.21105505  0.34083332  0.85625934    -0.22700
C711        C  0.23016460  0.34174580  0.83529386    -0.22900
C712        C  0.25490195  0.36424484  0.84308021     0.00100
H713        H  0.18900717  0.32781145  0.85409842     0.13900
H714        H  0.22592699  0.32919927  0.81439355     0.13900
O715        O  0.96605167  0.33030623  0.84797994    -0.77400
C716        C  0.98484353  0.33921668  0.95767172     0.83600
O717        O  0.96003780  0.40728482  0.88178400    -0.78500
O718        O  0.04489755  0.43223977  0.94421939    -0.80000
O719        O  0.06365617  0.38689603  0.85895249    -0.79800
O720        O  0.00229565  0.35578037  0.81540974    -0.78500
Zn721      Zn  0.97295534  0.35372768  0.88779617     1.55700
O722        O  0.06409295  0.38832891  0.91369474    -0.79900
Cd723      Cd  0.02859309  0.38900660  0.84421482     1.59700
Cd724      Cd  0.00106675  0.41969976  0.87967078     1.59600
O725        O  0.04167373  0.42583773  0.81579828    -0.79800
O726        O  0.00805412  0.38821150  0.88422861    -1.90300
Cd727      Cd  0.03068518  0.39312498  0.92502058     1.59900
O728        O  0.01736217  0.44269444  0.83708827    -0.79800
O729        O  0.00692685  0.36229891  0.96040500    -0.78500
C730        C  0.93923724  0.38335792  0.88595657     0.84100
C731        C  0.97872072  0.33441649  0.82089270     0.83700
O732        O  0.97130847  0.33266263  0.93085532    -0.77400
C733        C  0.07436718  0.38665339  0.88695878     0.84500
O734        O  0.94148998  0.36185355  0.88879875    -0.77500
C735        C  0.03426031  0.44393247  0.81608662     0.84700
C736        C  0.03777249  0.45035274  0.93773305     0.85000
O737        O  0.02048531  0.44737681  0.91531940    -0.79900
O738        O  0.17840513  0.72138078  0.57520116    -0.77400
C739        C  0.16126268  0.71577710  0.68197445     0.83600
O740        O  0.18684830  0.64579719  0.61958543    -0.78500
O741        O  0.10366129  0.62330656  0.68353122    -0.80000
O742        O  0.07867142  0.66109019  0.58740840    -0.79800
O743        O  0.14072870  0.69731515  0.54515291    -0.78500
Zn744      Zn  0.17327040  0.69847838  0.61747348     1.55700
O745        O  0.07958510  0.66098628  0.64214955    -0.79900
Cd746      Cd  0.11591785  0.66254836  0.57596946     1.59700
Cd747      Cd  0.14544376  0.63331713  0.61937171     1.59600
O748        O  0.10583033  0.62692215  0.55100419    -0.79800
O749        O  0.13766876  0.66438479  0.61714307    -1.90300
Cd750      Cd  0.11523656  0.66056950  0.65657546     1.59900
O751        O  0.12821089  0.60949867  0.58018942    -0.79800
O752        O  0.13772070  0.69415931  0.68571068    -0.78500
C753        C  0.20774064  0.66982535  0.61975558     0.84100
C754        C  0.16467515  0.71823343  0.54877830     0.83700
O755        O  0.17650251  0.72008316  0.65722053    -0.77400
C756        C  0.06796199  0.66083317  0.61479940     0.84500
O757        O  0.20528040  0.69117557  0.61950527    -0.77500
C758        C  0.11289301  0.60866950  0.55627655     0.84700
C759        C  0.11065709  0.60502091  0.68126848     0.85000
O760        O  0.12727652  0.60693284  0.65941199    -0.79900
O761        O  0.47715571  0.12793603  0.84486983    -0.77400
C762        C  0.46571433  0.10753451  0.95340944     0.83600
O763        O  0.56147196  0.14043084  0.88378768    -0.78500
O764        O  0.50530098  0.05627622  0.95294895    -0.80000
O765        O  0.44158553  0.03150832  0.85861384    -0.79800
O766        O  0.47156337  0.09461352  0.81271263    -0.78500
Zn767      Zn  0.49463538  0.12286811  0.88669294     1.55700
O768        O  0.44255360  0.02890265  0.91347273    -0.79900
Cd769      Cd  0.47826324  0.06836750  0.84570033     1.59700
Cd770      Cd  0.53546918  0.09887330  0.88659545     1.59600
O771        O  0.50437424  0.05781926  0.82296216    -0.79800
O772        O  0.49613835  0.08895362  0.88617637    -1.90300
Cd773      Cd  0.47788132  0.06482290  0.92618019     1.59900
O774        O  0.54416706  0.08184422  0.84914809    -0.79800
O775        O  0.46531784  0.08465403  0.95669135    -0.78500
C776        C  0.55704772  0.16038200  0.88531243     0.84100
C777        C  0.47128595  0.11682399  0.81720462     0.83700
O778        O  0.47528001  0.12340357  0.92772929    -0.77400
C779        C  0.43105194  0.01911233  0.88626089     0.84500
O780        O  0.53282696  0.15668316  0.88718150    -0.77500
C781        C  0.52973947  0.06543120  0.82723092     0.84700
C782        C  0.53133297  0.06664695  0.95119703     0.85000
O783        O  0.54559909  0.08409937  0.92849111    -0.79900
O784        O  0.66148201  0.92670586  0.61164793    -0.77400
C785        C  0.66571874  0.93089935  0.72403438     0.83600
O786        O  0.57685753  0.91042671  0.65159089    -0.78500
O787        O  0.63332900  0.99060683  0.71727455    -0.80000
O788        O  0.69980338  0.02299730  0.63383652    -0.79800
O789        O  0.67567149  0.96652946  0.58283611    -0.78500
Zn790      Zn  0.64382465  0.92702177  0.65385690     1.55700
O791        O  0.69699098  0.01511009  0.68832790    -0.79900
Cd792      Cd  0.66510462  0.98769066  0.61580795     1.59700
Cd793      Cd  0.60453241  0.95225347  0.65079374     1.59600
O794        O  0.64022001  0.00041421  0.58971177    -0.79800
O795        O  0.64364963  0.96146514  0.65392454    -1.90300
Cd796      Cd  0.65932604  0.97938630  0.69628584     1.59900
O797        O  0.59835380  0.97073275  0.60933128    -0.79800
O798        O  0.66460834  0.95256195  0.72887875    -0.78500
C799        C  0.58098026  0.89011120  0.65202100     0.84100
C800        C  0.67174146  0.94199432  0.58562972     0.83700
O801        O  0.66099196  0.92059163  0.69586925    -0.77400
C802        C  0.70930963  0.03001542  0.66276571     0.84500
O803        O  0.60519779  0.89362617  0.65267643    -0.77500
C804        C  0.61419081  0.99049663  0.58965732     0.84700
C805        C  0.60859071  0.98439471  0.71098385     0.85000
O806        O  0.59489434  0.96900349  0.68788915    -0.79900
C807        C  0.71490106  0.33334114  0.88871957     0.81300
N808        N  0.71276971  0.35634588  0.88456772    -0.77000
C809        C  0.73574077  0.38153276  0.88191146     0.83700
N810        N  0.76086308  0.38367545  0.88383951    -0.77000
C811        C  0.76319763  0.36085783  0.88832977     0.83800
N812        N  0.74017684  0.33566790  0.89067720    -0.78700
C813        C  0.43004376  0.71374982  0.62818281     0.81300
N814        N  0.40464529  0.71122061  0.62712802    -0.77000
C815        C  0.38186980  0.68625271  0.62339917     0.83700
N816        N  0.38459967  0.66380719  0.62077311    -0.77000
C817        C  0.40981351  0.66612036  0.62109751     0.83800
N818        N  0.43258206  0.69114954  0.62480411    -0.78700
O819        O  0.37623374  0.42972240  0.56293529    -0.77400
C820        C  0.38369206  0.42544365  0.67340705     0.83600
O821        O  0.45082885  0.51460430  0.59478739    -0.78500
O822        O  0.47532609  0.45915550  0.66794851    -0.80000
O823        O  0.43443978  0.39018962  0.58538501    -0.79800
O824        O  0.40133431  0.41750903  0.53397206    -0.78500
Zn825      Zn  0.39870632  0.44885841  0.60260248     1.55700
O826        O  0.43489567  0.39452830  0.63960564    -0.79900
Cd827      Cd  0.43533032  0.42654796  0.56546920     1.59700
Cd828      Cd  0.46385665  0.48652986  0.59748702     1.59600
O829        O  0.47223621  0.45084717  0.53811684    -0.79800
O830        O  0.43312110  0.44791044  0.60263179    -1.90300
Cd831      Cd  0.43766287  0.43222080  0.64600682     1.59900
O832        O  0.48673257  0.49234465  0.55702644    -0.79800
O833        O  0.40575259  0.42439712  0.67742149    -0.78500
C834        C  0.42691766  0.51159718  0.59584645     0.84100
C835        C  0.38003278  0.41998288  0.53734204     0.83700
O836        O  0.37778422  0.43333843  0.64599599    -0.77400
C837        C  0.43388099  0.38099240  0.61502984     0.84500
O838        O  0.40548341  0.48791202  0.59820159    -0.77500
C839        C  0.48918087  0.47678454  0.53769177     0.84700
C840        C  0.49354237  0.48409066  0.66058715     0.85000
O841        O  0.49143759  0.49718364  0.63535297    -0.79900
O842        O  0.77117823  0.61933112  0.81399117    -0.77400
C843        C  0.75663304  0.62833966  0.91774219     0.83600
O844        O  0.69334681  0.53408234  0.84904592    -0.78500
O845        O  0.66621473  0.59039099  0.90896692    -0.80000
O846        O  0.71274720  0.65816347  0.81315116    -0.79800
O847        O  0.74575510  0.62755555  0.77707898    -0.78500
Zn848      Zn  0.74478396  0.60008295  0.85253663     1.55700
O849        O  0.69974014  0.65173415  0.86573310    -0.79900
Cd850      Cd  0.71132749  0.62082649  0.80407870     1.59700
Cd851      Cd  0.67985830  0.56192175  0.84642356     1.59600
O852        O  0.67491994  0.59698665  0.77742387    -0.79800
O853        O  0.71041345  0.60066206  0.84676449    -1.90300
Cd854      Cd  0.70287597  0.61803030  0.88384620     1.59900
O855        O  0.65618881  0.55654704  0.80579001    -0.79800
O856        O  0.73549677  0.63126141  0.91701739    -0.78500
C857        C  0.71720997  0.53726645  0.85361195     0.84100
C858        C  0.76760737  0.62684867  0.78505802     0.83700
O859        O  0.76199064  0.61709794  0.89499315    -0.77400
C860        C  0.70550429  0.66558411  0.83833238     0.84500
O861        O  0.73836403  0.56101675  0.85573781    -0.77500
C862        C  0.65578296  0.57195886  0.78202968     0.84700
C863        C  0.64960351  0.56469079  0.90627862     0.85000
O864        O  0.65298914  0.55121046  0.88475257    -0.79900
C865        C  0.59191228  0.53049107  0.74610097     0.30800
C866        C  0.56624808  0.50658937  0.74382011    -0.35500
C867        C  0.54928137  0.50676696  0.71823728     0.16800
C868        C  0.55699742  0.52901706  0.69633409     0.22600
C869        C  0.58270912  0.55318609  0.69881940    -0.33600
C870        C  0.59981744  0.55297119  0.72450870     0.16700
O871        O  0.61080371  0.53436802  0.76815393    -0.25600
C872        C  0.63128944  0.55967064  0.76091319     0.06500
C873        C  0.62566942  0.57241643  0.73392717    -0.30500
O874        O  0.53817902  0.52415806  0.67356777    -0.22400
C875        C  0.51822579  0.49850022  0.68109113    -0.02400
C876        C  0.52399728  0.48674374  0.70876122    -0.16800
H877        H  0.56005552  0.48890400  0.76070092     0.21200
H878        H  0.58903957  0.57074653  0.68170841     0.19600
H879        H  0.63850680  0.59295279  0.72318265     0.19500
H880        H  0.51168842  0.46619083  0.71974281     0.15400
C881        C  0.59497017  0.54230079  0.96197682     0.30800
C882        C  0.57890851  0.54507967  0.98540274    -0.35500
C883        C  0.55208158  0.52211060  0.49460956     0.16800
C884        C  0.54388658  0.49680597  0.48222225     0.22600
C885        C  0.56242900  0.49293579  0.95884833    -0.33600
C886        C  0.58690168  0.51711559  0.94928952     0.16700
O887        O  0.61824423  0.56231730  0.94918767    -0.25600
C888        C  0.62531721  0.54986952  0.92792731     0.06500
C889        C  0.60657464  0.52173382  0.92701312    -0.30500
O890        O  0.52024692  0.47708178  0.49491992    -0.22400
C891        C  0.51327952  0.49013608  0.51554856    -0.02400
C892        C  0.53237647  0.51812540  0.51615649    -0.16800
H893        H  0.58490209  0.56470545  0.99547446     0.21200
H894        H  0.55634551  0.47335583  0.94860049     0.19600
H895        H  0.60713995  0.50694137  0.91167382     0.19500
H896        H  0.53207833  0.53332522  0.53101680     0.15400
C897        C  0.42928200  0.61697757  0.60853234     0.30800
C898        C  0.44739761  0.60708209  0.60424143    -0.35500
C899        C  0.43517984  0.57877040  0.60002999     0.16800
C900        C  0.40707661  0.56129093  0.60008444     0.22600
C901        C  0.38894190  0.57122239  0.60408853    -0.33600
C902        C  0.40117294  0.59955354  0.60832529     0.16700
O903        O  0.43621673  0.64267290  0.61335882    -0.25600
C904        C  0.41221215  0.64168180  0.61621462     0.06500
C905        C  0.38973289  0.61537719  0.61331442    -0.30500
O906        O  0.40023218  0.53532821  0.59756423    -0.22400
C907        C  0.42429681  0.53628870  0.59571110    -0.02400
C908        C  0.44670305  0.56278099  0.59695367    -0.16800
H909        H  0.46947433  0.62043973  0.60465373     0.21200
H910        H  0.36687757  0.55774856  0.60447371     0.19600
H911        H  0.36809940  0.60889028  0.61465964     0.19500
H912        H  0.46834877  0.56915054  0.59703429     0.15400
C913        C  0.71605248  0.43141747  0.87045853     0.30800
C914        C  0.69776975  0.44153226  0.86868110    -0.35500
C915        C  0.70967834  0.47007102  0.86351440     0.16800
C916        C  0.73766536  0.48757552  0.86036279     0.22600
C917        C  0.75597874  0.47741603  0.86186491    -0.33600
C918        C  0.74404296  0.44881668  0.86707062     0.16700
O919        O  0.70938816  0.40549056  0.87592404    -0.25600
C920        C  0.73341996  0.40627596  0.87612229     0.06500
C921        C  0.75570372  0.43266364  0.87063136    -0.30500
O922        O  0.74425277  0.51364281  0.85644040    -0.22400
C923        C  0.72011066  0.51268438  0.85685227    -0.02400
C924        C  0.69793675  0.48612622  0.86115302    -0.16800
H925        H  0.67580784  0.42811501  0.87148117     0.21200
H926        H  0.77796837  0.49086303  0.85954200     0.19600
H927        H  0.77731868  0.43900580  0.86973340     0.19500
H928        H  0.67631778  0.47965630  0.86275783     0.15400
C929        C  0.53385589  0.81930715  0.64692747     0.30800
C930        C  0.52515024  0.79149903  0.64229787    -0.35500
C931        C  0.49659977  0.77376312  0.63988052     0.16800
C932        C  0.47795429  0.78277473  0.64211182     0.22600
C933        C  0.48662313  0.81043157  0.64709248    -0.33600
C934        C  0.51508760  0.82814938  0.64924699     0.16700
O935        O  0.55955158  0.83973555  0.64821706    -0.25600
C936        C  0.55715131  0.86193364  0.65132456     0.06500
C937        C  0.52993834  0.85586644  0.65223428    -0.30500
O938        O  0.45233132  0.76298449  0.63829703    -0.22400
C939        C  0.45441968  0.74086982  0.63356985    -0.02400
C940        C  0.48151714  0.74633585  0.63434441    -0.16800
H941        H  0.53963201  0.78431307  0.64002753     0.21200
H942        H  0.47216888  0.81775302  0.64848812     0.19600
H943        H  0.52223742  0.86996891  0.65399239     0.19500
H944        H  0.48898922  0.73223713  0.63100192     0.15400
C945        C  0.62207770  0.21895489  0.88717430     0.30800
C946        C  0.65077742  0.23328622  0.88935504    -0.35500
C947        C  0.66331782  0.26195170  0.88897369     0.16800
C948        C  0.64868108  0.27568573  0.88638299     0.22600
C949        C  0.61984831  0.26129436  0.88417678    -0.33600
C950        C  0.60723485  0.23249175  0.88481085     0.16700
O951        O  0.60633567  0.19207902  0.88742261    -0.25600
C952        C  0.58100214  0.18816960  0.88533745     0.06500
C953        C  0.58019515  0.21256703  0.88366395    -0.30500
O954        O  0.66479968  0.30263227  0.88627303    -0.22400
C955        C  0.69000502  0.30607552  0.88893198    -0.02400
C956        C  0.69029112  0.28146260  0.89075292    -0.16800
H957        H  0.66251688  0.22277388  0.89135420     0.21200
H958        H  0.60810198  0.27179447  0.88223661     0.19600
H959        H  0.56237692  0.21518532  0.88191427     0.19500
H960        H  0.70785161  0.27842134  0.89274623     0.15400
C961        C  0.59623209  0.02831503  0.53264403     0.30800
C962        C  0.60042773  0.04999457  0.00944184    -0.35500
C963        C  0.57704538  0.05151499  0.99951061     0.16800
C964        C  0.55096586  0.03264575  0.51232025     0.22600
C965        C  0.54727694  0.01301365  0.53736179    -0.33600
C966        C  0.57068652  0.01146909  0.54658167     0.16700
O967        O  0.61521037  0.02310344  0.54527164    -0.25600
C968        C  0.60144525  0.00252441  0.56739723     0.06500
C969        C  0.57371800  0.99450829  0.56910120    -0.30500
O970        O  0.53141867  0.03621573  0.49840975    -0.22400
C971        C  0.54545017  0.05775164  0.97553071    -0.02400
C972        C  0.57359782  0.06717224  0.97523492    -0.16800
H973        H  0.62040615  0.06330473  0.99842521     0.21200
H974        H  0.52736235  0.99939702  0.54836798     0.19600
H975        H  0.55809751  0.97871216  0.58511864     0.19500
H976        H  0.58901128  0.08239476  0.95852958     0.15400
C977        C  0.54808977  0.03036794  0.77429965     0.30800
C978        C  0.54408600  0.01178143  0.75041412    -0.35500
C979        C  0.56620681  0.00754340  0.74524190     0.16800
C980        C  0.59066215  0.02072467  0.76226064     0.22600
C981        C  0.59471663  0.03939459  0.78604163    -0.33600
C982        C  0.57258827  0.04361281  0.79122583     0.16700
O983        O  0.52983543  0.03671492  0.78397410    -0.25600
C984        C  0.54290736  0.05434071  0.80728461     0.06500
C985        C  0.56958385  0.05945484  0.81271860    -0.30500
O986        O  0.60869164  0.01391070  0.75312993    -0.22400
C987        C  0.59554131  0.99607802  0.73004570    -0.02400
C988        C  0.56905175  0.99132906  0.72414247    -0.16800
H989        H  0.52498089  0.00119860  0.73696935     0.21200
H990        H  0.61375659  0.04983145  0.79964409     0.19600
H991        H  0.58430044  0.07230284  0.83068777     0.19500
H992        H  0.55427669  0.97827186  0.70635965     0.15400
C993        C  0.26645191  0.66281842  0.61928027     0.30800
C994        C  0.28126837  0.64881342  0.61883998    -0.35500
C995        C  0.31000665  0.66526636  0.61962522     0.16800
C996        C  0.32330549  0.69355379  0.62070122     0.22600
C997        C  0.30848813  0.70755992  0.62088493    -0.33600
C998        C  0.27975043  0.69111184  0.62021386     0.16700
O999        O  0.23944060  0.65154222  0.61912386    -0.25600
C1000       C  0.23537634  0.67290362  0.61995968     0.06500
C1001       C  0.25973762  0.69802546  0.62064362    -0.30500
O1002       O  0.35029832  0.70478828  0.62207214    -0.22400
C1003       C  0.35435010  0.68340968  0.62184125    -0.02400
C1004       C  0.33000460  0.65832148  0.62022502    -0.16800
H1005       H  0.27110386  0.62662741  0.61824041     0.21200
H1006       H  0.31864767  0.72971467  0.62183116     0.19600
H1007       H  0.26229434  0.71839244  0.62138962     0.19500
H1008       H  0.32743324  0.63791315  0.61995240     0.15400
C1009       C  0.86920627  0.36206866  0.89028577     0.30800
C1010       C  0.84097018  0.34311388  0.89232975    -0.35500
C1011       C  0.82360213  0.35433262  0.89115569     0.16800
C1012       C  0.83335493  0.38229764  0.88819818     0.22600
C1013       C  0.86160907  0.40128797  0.88626336    -0.33600
C1014       C  0.87897525  0.39004441  0.88738805     0.16700
O1015       O  0.88903896  0.35602969  0.89036167    -0.25600
C1016       C  0.91181981  0.38042968  0.88743546     0.06500
C1017       C  0.90683752  0.40237288  0.88553327    -0.30500
O1018       O  0.81343355  0.38821593  0.88704504    -0.22400
C1019       C  0.79063844  0.36374280  0.88934722    -0.02400
C1020       C  0.79568881  0.34188759  0.89199475    -0.16800
H1021       H  0.83309355  0.32114460  0.89441949     0.21200
H1022       H  0.86947002  0.42325118  0.88377267     0.19600
H1023       H  0.92157598  0.42416278  0.88290417     0.19500
H1024       H  0.78095884  0.32007246  0.89388903     0.15400
C1025       C  0.07473507  0.50716810  0.98707214     0.30800
C1026       C  0.09408713  0.52130248  0.51152723    -0.35500
C1027       C  0.09565653  0.54637493  0.51753107     0.16800
C1028       C  0.07976123  0.55566190  0.50124320     0.22600
C1029       C  0.05857460  0.54025440  0.97851204    -0.33600
C1030       C  0.05768140  0.51552014  0.97190465     0.16700
O1031       O  0.07007128  0.48308021  0.97755599    -0.25600
C1032       C  0.04973799  0.47587359  0.95591552     0.06500
C1033       C  0.04132351  0.49535650  0.95143758    -0.30500
O1034       O  0.08397182  0.57929146  0.51183453    -0.22400
C1035       C  0.10288370  0.58513789  0.53514280    -0.02400
C1036       C  0.11088495  0.56540016  0.53955355    -0.16800
H1037       H  0.10655289  0.51426358  0.52485165     0.21200
H1038       H  0.04478949  0.54632238  0.96667932     0.19600
H1039       H  0.02536646  0.49470407  0.93536819     0.19500
H1040       H  0.12532380  0.56477419  0.55722856     0.15400
C1041       C  0.05419151  0.50608280  0.77156246     0.30800
C1042       C  0.05440453  0.53084365  0.76388117    -0.35500
C1043       C  0.07318462  0.54835343  0.73973259     0.16800
C1044       C  0.09051612  0.54186852  0.72414328     0.22600
C1045       C  0.09032851  0.51705320  0.73186729    -0.33600
C1046       C  0.07152558  0.49951763  0.75611221     0.16700
O1047       O  0.03861012  0.48709870  0.79382070    -0.25600
C1048       C  0.04586950  0.46796297  0.79272719     0.06500
C1049       C  0.06633555  0.47454597  0.76967992    -0.30500
O1050       O  0.10617822  0.56112092  0.70205390    -0.22400
C1051       C  0.09890993  0.58026514  0.70360989    -0.02400
C1052       C  0.07842170  0.57340224  0.72665111    -0.16800
H1053       H  0.04090706  0.53612028  0.77600958     0.21200
H1054       H  0.10389887  0.51182149  0.71984369     0.19600
H1055       H  0.07631285  0.46299832  0.76430890     0.19500
H1056       H  0.06852333  0.58493328  0.73246563     0.15400
C1057       C  0.17222351  0.37224680  0.90415552     0.30800
C1058       C  0.14628332  0.36278822  0.91844976    -0.35500
C1059       C  0.13055186  0.37399669  0.90472542     0.16800
C1060       C  0.13947379  0.39279542  0.87828849     0.22600
C1061       C  0.16568897  0.40279833  0.86461533    -0.33600
C1062       C  0.18169031  0.39209660  0.87885478     0.16700
O1063       O  0.18836725  0.36156025  0.90965345    -0.25600
C1064       C  0.20905997  0.37536317  0.88842112     0.06500
C1065       C  0.20597512  0.39483650  0.86892215    -0.30500
O1066       O  0.12078293  0.39926110  0.86801244    -0.22400
C1067       C  0.09976027  0.38484987  0.88856330    -0.02400
C1068       C  0.10475441  0.36886399  0.91201363    -0.16800
H1069       H  0.13841820  0.34692957  0.93799258     0.21200
H1070       H  0.17276513  0.41724041  0.84358097     0.19600
H1071       H  0.21764724  0.40619958  0.84721636     0.19500
H1072       H  0.09113797  0.35511796  0.93124017     0.15400
C1073       C  0.34215104  0.40862446  0.96441832     0.30800
C1074       C  0.33794251  0.40749491  0.93035093    -0.35500
C1075       C  0.31208348  0.40272663  0.91923778     0.16800
C1076       C  0.29146941  0.39893317  0.94005171     0.22600
C1077       C  0.29584621  0.40058248  0.97420433    -0.33600
C1078       C  0.32185981  0.40558205  0.98535640     0.16700
O1079       O  0.36442684  0.40980780  0.47964396    -0.25600
C1080       C  0.35956789  0.41290568  0.51044476     0.06500
C1081       C  0.33444777  0.41194920  0.51380042    -0.30500
O1082       O  0.26792992  0.39157485  0.92448069    -0.22400
C1083       C  0.27356675  0.39090755  0.89306227    -0.02400
C1084       C  0.30104193  0.39815408  0.88863437    -0.16800
H1085       H  0.35360467  0.40965204  0.91362009     0.21200
H1086       H  0.27985993  0.39748143  0.99100267     0.19600
H1087       H  0.32570001  0.41439022  0.53577255     0.19500
H1088       H  0.31130534  0.39784601  0.86685261     0.15400
C1089       C  0.33696226  0.41584761  0.73565562     0.30800
C1090       C  0.31949803  0.42132811  0.75390952    -0.35500
C1091       C  0.30539600  0.40249985  0.78024275     0.16800
C1092       C  0.30787545  0.37955742  0.78765538     0.22600
C1093       C  0.32580950  0.37450180  0.76999173    -0.33600
C1094       C  0.34025567  0.39354443  0.74414310     0.16700
O1095       O  0.35144811  0.43004788  0.70933083    -0.25600
C1096       C  0.36450234  0.41684679  0.70133762     0.06500
C1097       C  0.35847310  0.39419797  0.72233509    -0.30500
O1098       O  0.29110251  0.36341827  0.81137025    -0.22400
C1099       C  0.27822463  0.37654693  0.81994446    -0.02400
C1100       C  0.28631989  0.40099879  0.80151980    -0.16800
H1101       H  0.31670902  0.43877761  0.74767183     0.21200
H1102       H  0.32795938  0.35659500  0.77561072     0.19600
H1103       H  0.36597545  0.37988264  0.72114683     0.19500
H1104       H  0.27812269  0.41476030  0.80246085     0.15400
C1105       C  0.96114085  0.65997507  0.60864396     0.30800
C1106       C  0.97601173  0.65124475  0.59025669    -0.35500
C1107       C  0.00126470  0.65580384  0.60357136     0.16800
C1108       C  0.01083847  0.66762693  0.63329083     0.22600
C1109       C  0.99605913  0.67644206  0.65152252    -0.33600
C1110       C  0.97107585  0.67227624  0.63801903     0.16700
O1111       O  0.93893051  0.66080424  0.59891456    -0.25600
C1112       C  0.93431009  0.67359624  0.62239762     0.06500
C1113       C  0.95388400  0.68136838  0.64723456    -0.30500
O1114       O  0.03511577  0.67058001  0.64097014    -0.22400
C1115       C  0.04162886  0.66094494  0.61570359    -0.02400
C1116       C  0.02130421  0.65150887  0.59154444    -0.16800
H1117       H  0.96893610  0.64258852  0.56650632     0.21200
H1118       H  0.00403643  0.68680008  0.67418568     0.19600
H1119       H  0.95674268  0.69439918  0.66723194     0.19500
H1120       H  0.02131410  0.64280947  0.56855891     0.15400
C1121       C  0.85613572  0.65250886  0.68785808     0.30800
C1122       C  0.85335236  0.65347222  0.72202781    -0.35500
C1123       C  0.82644813  0.64413844  0.73360736     0.16800
C1124       C  0.80411469  0.63490788  0.71284165     0.22600
C1125       C  0.80681250  0.63327463  0.67915175    -0.33600
C1126       C  0.83341305  0.64220530  0.66774399     0.16700
O1127       O  0.87938363  0.66286912  0.67095355    -0.25600
C1128       C  0.87130896  0.65878474  0.63960289     0.06500
C1129       C  0.84276454  0.64552045  0.63653649    -0.30500
O1130       O  0.78110585  0.62848708  0.72805593    -0.22400
C1131       C  0.78835033  0.63319001  0.75931499    -0.02400
C1132       C  0.81637676  0.64276290  0.76437553    -0.16800
H1133       H  0.87093820  0.66172159  0.73820507     0.21200
H1134       H  0.78942174  0.62628467  0.66273513     0.19600
H1135       H  0.83044671  0.64085025  0.61455875     0.19500
H1136       H  0.82764241  0.64816073  0.78722061     0.15400
C1137       C  0.83312681  0.65037473  0.53056121     0.30800
C1138       C  0.82276852  0.63563334  0.00377163    -0.35500
C1139       C  0.80427606  0.63890522  0.98298679     0.16800
C1140       C  0.79704710  0.65871881  0.98678782     0.22600
C1141       C  0.80900773  0.67488440  0.51252848    -0.33600
C1142       C  0.82758055  0.67149716  0.53326306     0.16700
O1143       O  0.85237134  0.65205722  0.55110959    -0.25600
C1144       C  0.85937554  0.67460136  0.56713432     0.06500
C1145       C  0.84475358  0.68764522  0.55693466    -0.30500
O1146       O  0.77906372  0.65773336  0.96453226    -0.22400
C1147       C  0.77522529  0.63731984  0.94605982    -0.02400
C1148       C  0.79048102  0.62501619  0.95632249    -0.16800
H1149       H  0.82832406  0.62007876  0.00029854     0.21200
H1150       H  0.80507530  0.69171528  0.51460810     0.19600
H1151       H  0.84754517  0.70701295  0.56452050     0.19500
H1152       H  0.79103791  0.60804633  0.94580984     0.15400
C1153       C  0.69051254  0.76083458  0.85757445     0.30800
C1154       C  0.67493147  0.73199355  0.85762545    -0.35500
C1155       C  0.68811860  0.71854089  0.84589393     0.16800
C1156       C  0.71463975  0.73245246  0.83387561     0.22600
C1157       C  0.73008320  0.76140005  0.83322641    -0.33600
C1158       C  0.71710057  0.77487156  0.84578623     0.16700
O1159       O  0.68412631  0.77667726  0.87354832    -0.25600
C1160       C  0.70672208  0.80137734  0.87192228     0.06500
C1161       C  0.72787671  0.80137099  0.85485488    -0.30500
O1162       O  0.72395550  0.71565121  0.82771527    -0.22400
C1163       C  0.70317390  0.69069805  0.83618139    -0.02400
C1164       C  0.68045047  0.69134509  0.84769953    -0.16800
H1165       H  0.65474509  0.72067888  0.86878023     0.20200
H1166       H  0.75148867  0.77251513  0.82595190     0.19600
H1167       H  0.74920578  0.81749138  0.85347775     0.19500
H1168       H  0.66161799  0.67432507  0.85783591     0.15400
C1169       C  0.68060682  0.87166608  0.98745743     0.30800
C1170       C  0.66934380  0.86969544  0.01827568    -0.35500
C1171       C  0.67409143  0.89695036  0.52836314     0.16800
C1172       C  0.69019016  0.92259502  0.51327356     0.22600
C1173       C  0.70356403  0.92532245  0.48323126    -0.33600
C1174       C  0.69497644  0.89655262  0.97003765     0.16700
O1175       O  0.68140218  0.85147817  0.97369944    -0.25600
C1176       C  0.69622711  0.86300309  0.94661081     0.06500
C1177       C  0.70541026  0.89121397  0.94305355    -0.30500
O1178       O  0.69192646  0.94260960  0.53097169    -0.22400
C1179       C  0.67703220  0.92927732  0.55782686    -0.02400
C1180       C  0.66553354  0.90093930  0.55713933    -0.16800
H1181       H  0.65881481  0.85031172  0.03246633     0.21200
H1182       H  0.71701376  0.94526697  0.47138733     0.19600
H1183       H  0.71971111  0.90599414  0.92505400     0.19500
H1184       H  0.65262346  0.88534313  0.57547525     0.15400
C1185       C  0.68465107  0.87838565  0.84495097     0.30800
C1186       C  0.68079500  0.90064556  0.83543951    -0.35500
C1187       C  0.67754594  0.90448787  0.80166337     0.16800
C1188       C  0.67783342  0.88745808  0.77883656     0.22600
C1189       C  0.68168334  0.86519563  0.78838685    -0.33600
C1190       C  0.68509803  0.86146432  0.82214661     0.16700
O1191       O  0.68960378  0.87197891  0.87496086    -0.25600
C1192       C  0.69333402  0.85063890  0.87155816     0.06500
C1193       C  0.69065066  0.84316008  0.83902730    -0.30500
O1194       O  0.67419428  0.89468837  0.74857652    -0.22400
C1195       C  0.67171049  0.91677953  0.75195700    -0.02400
C1196       C  0.67367356  0.92382836  0.78450146    -0.16800
H1197       H  0.68077299  0.91427561  0.85309921     0.21200
H1198       H  0.68230737  0.85190748  0.77068205     0.19600
H1199       H  0.69352224  0.82756562  0.82858031     0.19500
H1200       H  0.67198433  0.94046766  0.79413953     0.15400
C1201       C  0.81850977  0.12761530  0.68892999     0.30800
C1202       C  0.80071025  0.10092950  0.70216279    -0.35500
C1203       C  0.77495260  0.08628617  0.68689075     0.16800
C1204       C  0.76730036  0.09695414  0.66004513     0.22600
C1205       C  0.78473159  0.12400594  0.64753124    -0.33600
C1206       C  0.81031727  0.13885723  0.66322442     0.16700
O1207       O  0.84503622  0.14275429  0.69542056    -0.25600
C1208       C  0.85396459  0.16455311  0.67440676     0.06500
C1209       C  0.83298975  0.16326257  0.65413047    -0.30500
O1210       O  0.74338423  0.07870674  0.64765714    -0.22400
C1211       C  0.73537613  0.05615672  0.66719567    -0.02400
C1212       C  0.75412670  0.05984146  0.69219391    -0.16800
H1213       H  0.80712844  0.09158816  0.72178644     0.21200
H1214       H  0.77931017  0.13242234  0.62597452     0.19600
H1215       H  0.83523513  0.17605001  0.63224343     0.19500
H1216       H  0.75301088  0.04481567  0.71083221     0.15400
C1217       C  0.93123998  0.26399541  0.70581963     0.30800
C1218       C  0.95244203  0.29037039  0.71347214    -0.35500
C1219       C  0.95494658  0.29680756  0.74661623     0.16800
C1220       C  0.93759804  0.27868021  0.77070306     0.22600
C1221       C  0.91640772  0.25215138  0.76304865    -0.33600
C1222       C  0.91398350  0.24562017  0.72980631     0.16700
O1223       O  0.92652145  0.25327405  0.67676072    -0.25600
C1224       C  0.90577398  0.22759246  0.68179634     0.06500
C1225       C  0.89714825  0.22168010  0.71452576    -0.30500
O1226       O  0.94362063  0.28920037  0.80007811    -0.22400
C1227       C  0.96536217  0.31432474  0.79479224    -0.02400
C1228       C  0.97325719  0.32003106  0.76192518    -0.16800
H1229       H  0.96639273  0.30473284  0.69490008     0.21200
H1230       H  0.90296636  0.23749229  0.78176944     0.19600
H1231       H  0.88204381  0.20216146  0.72586599     0.19500
H1232       H  0.98982329  0.33880499  0.75082598     0.15400
C1233       C  0.94602315  0.29095033  0.51684146     0.30800
C1234       C  0.92217074  0.26998760  0.53240879    -0.35500
C1235       C  0.92594572  0.25974953  0.56309511     0.16800
C1236       C  0.95145341  0.26917412  0.57741631     0.22600
C1237       C  0.97526170  0.29049576  0.56209224    -0.33600
C1238       C  0.96473432  0.30184874  0.03631151     0.16700
O1239       O  0.95830726  0.29250002  0.98291336    -0.25600
C1240       C  0.97435176  0.31939932  0.98622207     0.06500
C1241       C  0.97916978  0.32642510  0.01892392    -0.30500
O1242       O  0.95049512  0.25463381  0.60449785    -0.22400
C1243       C  0.92393026  0.23612938  0.60792344    -0.02400
C1244       C  0.90776445  0.23835192  0.58289079    -0.16800
H1245       H  0.90213929  0.26175618  0.52103150     0.21200
H1246       H  0.99543467  0.29789659  0.57280264     0.19600
H1247       H  0.99110126  0.34671108  0.02842168     0.19500
H1248       H  0.88609663  0.22466476  0.57854742     0.15400
C1249       C  0.32506241  0.91366140  0.87646753     0.30800
C1250       C  0.35010549  0.92927333  0.85948723    -0.35500
C1251       C  0.37003140  0.95332025  0.87403704     0.16800
C1252       C  0.36593659  0.96110686  0.90382219     0.22600
C1253       C  0.34084577  0.94547019  0.92084862    -0.33600
C1254       C  0.32061996  0.92170594  0.90587497     0.16700
O1255       O  0.30246097  0.89310093  0.86466623    -0.25600
C1256       C  0.28300881  0.88758694  0.88662048     0.06500
C1257       C  0.29322958  0.90489577  0.91281223    -0.30500
O1258       O  0.38693044  0.98491921  0.91226075    -0.22400
C1259       C  0.40454883  0.99277197  0.88729063    -0.02400
C1260       C  0.39501572  0.97389930  0.86275109    -0.16800
H1261       H  0.35321442  0.92390008  0.83556174     0.21200
H1262       H  0.33686019  0.95215887  0.94336641     0.19600
H1263       H  0.28156003  0.90711680  0.93185647     0.19500
H1264       H  0.40494760  0.97528448  0.83981689     0.15400
C1265       C  0.22459144  0.80565311  0.94237946     0.30800
C1266       C  0.22765665  0.79935352  0.97557596    -0.35500
C1267       C  0.20718083  0.77386529  0.49060873     0.16800
C1268       C  0.18238536  0.75793139  0.97243602     0.22600
C1269       C  0.17938204  0.76414217  0.93932174    -0.33600
C1270       C  0.20129940  0.78839790  0.92523432     0.16700
O1271       O  0.24165317  0.82819660  0.92472165    -0.25600
C1272       C  0.22928112  0.82511284  0.89561178     0.06500
C1273       C  0.20397720  0.80067332  0.89486824    -0.30500
O1274       O  0.16496525  0.73631947  0.49221539    -0.22400
C1275       C  0.17730134  0.73890448  0.52115002    -0.02400
C1276       C  0.20365709  0.76193859  0.52156599    -0.16800
H1277       H  0.24782446  0.81075382  0.48952289     0.21200
H1278       H  0.16107949  0.75115003  0.92557756     0.19600
H1279       H  0.18862290  0.79364931  0.87575675     0.19500
H1280       H  0.21819184  0.76867930  0.54161651     0.15400
C1281       C  0.18983117  0.79931917  0.78082211     0.30800
C1282       C  0.17243693  0.78859741  0.75371942    -0.35500
C1283       C  0.17436854  0.76826695  0.73754271     0.16800
C1284       C  0.19254608  0.75939834  0.74699121     0.22600
C1285       C  0.20987252  0.77005088  0.77422391    -0.33600
C1286       C  0.20754643  0.79001494  0.79080133     0.16700
O1287       O  0.19217569  0.81924173  0.79863758    -0.25600
C1288       C  0.21126398  0.82242595  0.82077816     0.06500
C1289       C  0.22151936  0.80473960  0.81709861    -0.30500
O1290       O  0.19083392  0.74014899  0.72833382    -0.22400
C1291       C  0.17107353  0.73645602  0.70696926    -0.02400
C1292       C  0.16010706  0.75336340  0.71150259    -0.16800
H1293       H  0.15836507  0.79566525  0.74574640     0.21200
H1294       H  0.22415651  0.76319740  0.78200828     0.19600
H1295       H  0.23799736  0.80399107  0.83066020     0.19500
H1296       H  0.14384802  0.75434410  0.69771800     0.15400
C1297       C  0.43629813  0.31911333  0.62080286     0.30800
C1298       C  0.44462412  0.30020387  0.61329237    -0.35500
C1299       C  0.43218673  0.27486106  0.63159859     0.16800
C1300       C  0.41231688  0.26821533  0.65502976     0.22600
C1301       C  0.40451763  0.28733201  0.66311194    -0.33600
C1302       C  0.41741198  0.31286071  0.64538923     0.16700
O1303       O  0.44447540  0.34367616  0.60609627    -0.25600
C1304       C  0.43094875  0.35342802  0.62194547     0.06500
C1305       C  0.41404721  0.33516551  0.64673327    -0.30500
O1306       O  0.40061949  0.24213393  0.66577289    -0.22400
C1307       C  0.41381506  0.23207086  0.64992412    -0.02400
C1308       C  0.43377493  0.25163115  0.62850645    -0.16800
H1309       H  0.45926128  0.30463788  0.59392811     0.21200
H1310       H  0.38879891  0.28233301  0.68126239     0.19600
H1311       H  0.40073970  0.33780235  0.66300205     0.19500
H1312       H  0.44540785  0.24825969  0.61046947     0.15400
C1313       C  0.44335956  0.17948525  0.71621835     0.30800
C1314       C  0.44193774  0.17400471  0.75034534    -0.35500
C1315       C  0.45283464  0.15751679  0.76236662     0.16800
C1316       C  0.46434230  0.14705209  0.74226555     0.22600
C1317       C  0.46650523  0.15321663  0.70824213    -0.33600
C1318       C  0.45559196  0.16972171  0.69620645     0.16700
O1319       O  0.43088116  0.19089439  0.69942039    -0.25600
C1320       C  0.43521482  0.18860865  0.66809232     0.06500
C1321       C  0.45102348  0.17603290  0.66479202    -0.30500
O1322       O  0.47169773  0.13070594  0.75854109    -0.22400
C1323       C  0.46501991  0.13092222  0.78954976    -0.02400
C1324       C  0.45342842  0.14743718  0.79334868    -0.16800
H1325       H  0.43178880  0.18093987  0.76624422     0.21200
H1326       H  0.47494103  0.14469196  0.69208541     0.19600
H1327       H  0.45605504  0.16977068  0.64272135     0.19500
H1328       H  0.44618905  0.15117102  0.81570885     0.15400
C1329       C  0.45265412  0.14220193  0.51455645     0.30800
C1330       C  0.45455757  0.16519107  0.52881740    -0.35500
C1331       C  0.43946870  0.15993091  0.55771292     0.16800
C1332       C  0.42318617  0.13375189  0.57152115     0.22600
C1333       C  0.42182007  0.11075525  0.55766827    -0.33600
C1334       C  0.43689738  0.11648765  0.02623756     0.16700
O1335       O  0.46333111  0.14271049  0.98374780    -0.25600
C1336       C  0.45585286  0.11645943  0.98058562     0.06500
C1337       C  0.43946674  0.09919457  0.00637245    -0.30500
O1338       O  0.40886220  0.13345571  0.59686544    -0.22400
C1339       C  0.41667256  0.15986734  0.59964265    -0.02400
C1340       C  0.43571304  0.17720745  0.57607647    -0.16800
H1341       H  0.46654843  0.18578506  0.51770830     0.21200
H1342       H  0.40992478  0.09061918  0.06643300     0.19600
H1343       H  0.43076104  0.07713997  0.00992496     0.19500
H1344       H  0.44420520  0.19919907  0.57191992     0.15400
loop_ 
_geom_bond_atom_site_label_1 
_geom_bond_atom_site_label_2 
_geom_bond_distance 
_geom_bond_site_symmetry_2 
_ccdc_geom_bond_type 
N1            C5   1.358       .  A
N1            C2   1.359       .  A
N1          C648   1.447       .  S
C2            C3   1.382       .  A
C2          C635   1.478       .  S
C3            C4   1.373       .  A
C3            H6   1.083       .  S
C4            C5   1.378       .  A
C4            H7   1.082       .  S
C5          C667   1.471       .  S
N8           C12   1.360       .  A
N8            C9   1.361       .  A
N8          C600   1.451       .  S
C9           C10   1.386       .  A
C9          C584   1.477       .  S
C10          C11   1.372       .  A
C10          H13   1.083       .  S
C11          C12   1.376       .  A
C11          H14   1.082       .  S
C12         C616   1.479       .  S
N15          C19   1.362       .  A
N15          C16   1.365       .  A
N15         C552   1.453       .  S
C16          C17   1.382       .  A
C16         C536   1.480       .  S
C17          C18   1.367       .  A
C17          H20   1.083       .  S
C18          C19   1.381       .  A
C18          H21   1.082       .  S
C19         C571   1.484       .  S
N22          C26   1.367       .  A
N22          C23   1.369       .  A
N22         C520   1.449       .  S
C23          C24   1.379       .  A
C23         C488   1.481       .  S
C24          C25   1.369       .  A
C24          H27   1.083       .  S
C25          C26   1.380       .  A
C25          H28   1.083       .  S
C26         C504   1.484       .  S
N29          C33   1.363       .  A
N29          C30   1.364       .  A
N29         C456   1.455       .  S
C30          C31   1.384       .  A
C30         C440   1.482       .  S
C31          C32   1.370       .  A
C31          H34   1.083       .  S
C32          C33   1.376       .  A
C32          H35   1.083       .  S
C33         C472   1.472       .  S
N36          C40   1.361       .  A
N36          C37   1.363       .  A
N36         C411   1.454       .  S
C37          C38   1.385       .  A
C37         C392   1.476       .  S
C38          C39   1.370       .  A
C38          H41   1.083       .  S
C39          C40   1.376       .  A
C39          H42   1.083       .  S
C40         C427   1.470       .  S
O43          C59   1.279       .  A
O43         Zn49   2.050       .  S
C44         C568   1.476       .  S
C44          O60   1.278       .  A
C44          O57   1.276   1_655  A
O45          C58   1.271       .  A
O45         Cd52   2.060   1_655  S
O46          C64   1.278       .  A
O46         Cd55   2.109       .  S
O47          C61   1.280       .  A
O47         Cd51   2.105       .  S
O48          C59   1.282   1_455  A
O48         Cd51   2.112       .  S
Zn49         O60   2.046       .  S
Zn49         O62   2.033       .  S
Zn49         O54   1.956   1_655  S
O50          C61   1.276       .  A
O50         Cd55   2.077       .  S
Cd51         O53   2.105       .  S
Cd51         O54   2.018       .  S
Cd52         O56   2.039       .  S
Cd52         O65   2.044       .  S
Cd52         O54   1.993       .  S
O53          C63   1.278       .  A
O54         Cd55   2.012       .  S
Cd55         O57   2.078       .  S
O56          C63   1.270       .  A
C58         C344   1.471       .  S
C58          O62   1.274       .  A
C59         C555   1.489       .  S
C61         C395   1.476       .  S
C63         C376   1.470       .  S
C64         C360   1.475       .  S
C64          O65   1.270       .  A
O66          C82   1.278       .  A
O66         Zn72   2.032       .  S
C67         C619   1.469       .  S
C67          O83   1.277       .  A
C67          O80   1.276       .  A
O68          C81   1.271       .  A
O68         Cd75   2.062       .  S
O69          C87   1.279       .  A
O69         Cd78   2.100       .  S
O70          C84   1.282       .  A
O70         Cd74   2.120       .  S
O71          C82   1.281       .  A
O71         Cd74   2.107       .  S
Zn72         O83   2.040       .  S
Zn72         O85   2.045       .  S
Zn72         O77   1.961       .  S
O73          C84   1.277       .  A
O73         Cd78   2.088       .  S
Cd74         O76   2.111       .  S
Cd74         O77   2.026       .  S
Cd75         O79   2.041       .  S
Cd75         O88   2.049       .  S
Cd75         O77   1.996       .  S
O76          C86   1.279       .  A
O77         Cd78   2.010       .  S
Cd78         O80   2.081       .  S
O79          C86   1.271       .  A
C81         C328   1.475       .  S
C81          O85   1.275       .  A
C82         C603   1.482       .  S
C84         C443   1.487       .  S
C86         C363   1.476       .  S
C87         C379   1.471       .  S
C87          O88   1.271       .  A
O89         C105   1.277       .  A
O89         Zn95   2.033       .  S
C90         C664   1.474       .  S
C90         O106   1.277       .  A
C90         O103   1.275       .  A
O91         C104   1.270       .  A
O91         Cd98   2.049       .  S
O92         C110   1.279       .  A
O92        Cd101   2.102       .  S
O93         C107   1.282       .  A
O93         Cd97   2.118       .  S
O94         C105   1.280       .  A
O94         Cd97   2.103       .  S
Zn95        O106   2.036       .  S
Zn95        O108   2.038       .  S
Zn95        O100   1.957       .  S
O96         C107   1.277       .  A
O96        Cd101   2.086       .  S
Cd97         O99   2.098       .  S
Cd97        O100   2.013       .  S
Cd98        O102   2.048       .  S
Cd98        O111   2.051       .  S
Cd98        O100   1.990       .  S
O99         C109   1.277       .  A
O100       Cd101   2.006       .  S
Cd101       O103   2.077       .  S
O102        C109   1.271       .  A
C104        C280   1.469       .  S
C104        O108   1.274       .  A
C105        C651   1.478       .  S
C107        C587   1.484   1_545  S
C109        C312   1.471       .  S
C110        C299   1.473       .  S
C110        O111   1.272       .  A
O112        C128   1.278       .  A
O112       Zn118   2.018       .  S
C113        C523   1.481       .  S
C113        O129   1.279       .  A
C113        O126   1.277       .  A
O114        C127   1.272       .  A
O114       Cd121   2.067       .  S
O115        C133   1.276       .  A
O115       Cd124   2.085       .  S
O116        C130   1.282       .  A
O116       Cd120   2.127   1_545  S
O117        C128   1.282       .  A
O117       Cd120   2.131       .  S
Zn118       O129   2.052       .  S
Zn118       O131   2.045       .  S
Zn118       O123   1.946       .  S
O119        C130   1.277       .  A
O119       Cd124   2.079   1_545  S
Cd120       O122   2.106       .  S
Cd120       O123   2.032       .  S
Cd121       O125   2.047       .  S
Cd121       O134   2.046       .  S
Cd121       O123   1.997       .  S
O122        C132   1.279       .  A
O123       Cd124   2.005       .  S
Cd124       O126   2.087       .  S
O125        C132   1.272       .  A
C127        C264   1.477       .  S
C127        O131   1.274       .  A
C128        C507   1.490       .  S
C130        C539   1.486       .  S
C132        C296   1.474   1_565  S
C133        C315   1.468       .  S
C133        O134   1.271       .  A
C135        N136   1.358       .  A
C135        N140   1.362       .  A
C135        C283   1.474       .  S
N136        C137   1.358       .  A
C137        N138   1.358       .  A
C137        C248   1.470       .  S
N138        C139   1.356       .  A
C139        N140   1.361       .  A
C139        C347   1.474       .  S
C141        N142   1.359       .  A
C141        N146   1.363       .  A
C141        C267   1.477       .  S
N142        C143   1.358       .  A
C143        N144   1.359       .  A
C143        C331   1.475       .  S
N144        C145   1.360       .  A
C145        N146   1.362       .  A
C145        C232   1.477       .  S
O147        C163   1.277       .  A
O147       Zn153   2.027       .  S
C148        C424   1.474       .  S
C148        O164   1.276       .  A
C148        O161   1.274       .  A
O149        C162   1.272       .  A
O149       Cd156   2.060       .  S
O150        C168   1.278       .  A
O150       Cd159   2.096       .  S
O151        C165   1.282       .  A
O151       Cd155   2.126       .  S
O152        C163   1.284       .  A
O152       Cd155   2.125       .  S
Zn153       O164   2.042       .  S
Zn153       O166   2.036       .  S
Zn153       O158   1.959       .  S
O154        C165   1.275       .  A
O154       Cd159   2.066       .  S
Cd155       O157   2.134       .  S
Cd155       O158   2.031       .  S
Cd156       O160   2.042       .  S
Cd156       O169   2.050       .  S
Cd156       O158   1.992       .  S
O157        C167   1.281       .  A
O158       Cd159   2.005       .  S
Cd159       O161   2.076       .  S
O160        C167   1.272       .  A
C162        C235   1.473       .  S
C162        O166   1.274       .  A
C163        C408   1.485       .  S
C165        C632   1.479       .  S
C167        C219   1.484       .  S
C168        C203   1.471       .  S
C168        O169   1.270       .  A
O170        C186   1.278       .  A
O170       Zn176   2.054       .  S
C171        C475   1.469       .  S
C171        O187   1.276       .  A
C171        O184   1.278       .  A
O172        C185   1.270       .  A
O172       Cd179   2.052       .  S
O173        C191   1.278       .  A
O173       Cd182   2.111       .  S
O174        C188   1.281       .  A
O174       Cd178   2.119       .  S
O175        C186   1.281       .  A
O175       Cd178   2.110       .  S
Zn176       O187   2.013       .  S
Zn176       O189   2.038       .  S
Zn176       O181   1.957       .  S
O177        C188   1.278       .  A
O177       Cd182   2.084       .  S
Cd178       O180   2.110       .  S
Cd178       O181   2.019       .  S
Cd179       O183   2.032       .  S
Cd179       O192   2.050       .  S
Cd179       O181   1.993       .  S
O180        C190   1.280       .  A
O181       Cd182   2.012       .  S
Cd182       O184   2.087       .  S
O183        C190   1.270       .  A
C185        C251   1.470       .  S
C185        O189   1.274       .  A
C186        C459   1.488       .  S
C188        C491   1.482       .  S
C190        C200   1.468       .  S
C191        C216   1.478       .  S
C191        O192   1.270       .  A
C193        C198   1.380       .  A
C193        C194   1.401       .  A
C193        O199   1.312       .  A
C194        C195   1.398       .  A
C194        H205   1.083       .  S
C195        C204   1.362       .  A
C195        C196   1.380       .  A
C196        C197   1.407       .  A
C196        O202   1.318       .  A
C197        C198   1.404       .  A
C197        H206   1.083       .  S
C198        C201   1.369       .  A
O199        C200   1.330       .  A
C200        C201   1.393       .  A
C201        H207   1.083       .  S
O202        C203   1.333       .  A
C203        C204   1.389       .  A
C204        H208   1.083       .  S
C209        C214   1.381       .  A
C209        C210   1.401       .  A
C209        O215   1.322       .  A
C210        C883   1.403       .  A
C210        H221   1.083       .  S
C211        C220   1.354   1_556  A
C211        C212   1.380       .  A
C211        C882   1.402       .  A
C212        C885   1.409       .  A
C212        O218   1.329       .  A
C213        C214   1.409       .  A
C213        C884   1.407       .  A
C213        H222   1.082       .  S
C214        C217   1.362       .  A
O215        C216   1.330       .  A
C216        C217   1.396       .  A
C217        H223   1.082       .  S
O218        C219   1.335   1_556  A
C219        C220   1.393       .  A
C220        H224   1.083       .  S
C225        C230   1.380       .  A
C225        C226   1.405       .  A
C225        O231   1.322       .  A
C226        C227   1.405       .  A
C226        H237   1.082       .  S
C227        C236   1.363       .  A
C227        C228   1.380       .  A
C228        C229   1.403       .  A
C228        O234   1.320       .  A
C229        C230   1.403       .  A
C229        H238   1.082       .  S
C230        C233   1.362       .  A
O231        C232   1.332       .  A
C232        C233   1.393       .  A
C233        H239   1.082       .  S
O234        C235   1.331       .  A
C235        C236   1.393       .  A
C236        H240   1.083       .  S
C241        C246   1.380       .  A
C241        C242   1.403       .  A
C241        O247   1.319       .  A
C242        C243   1.403       .  A
C242        H253   1.082       .  S
C243        C252   1.361       .  A
C243        C244   1.381       .  A
C244        C245   1.403       .  A
C244        O250   1.319       .  A
C245        C246   1.402       .  A
C245        H254   1.082       .  S
C246        C249   1.360       .  A
O247        C248   1.331       .  A
C248        C249   1.391       .  A
C249        H255   1.082       .  S
O250        C251   1.330       .  A
C251        C252   1.392       .  A
C252        H256   1.083       .  S
C257        C262   1.380       .  A
C257        C258   1.406       .  A
C257        O263   1.322       .  A
C258        C259   1.405       .  A
C258        H269   1.082       .  S
C259        C268   1.366       .  A
C259        C260   1.380       .  A
C260        C261   1.405       .  A
C260        O266   1.320       .  A
C261        C262   1.404       .  A
C261        H270   1.083       .  S
C262        C265   1.363       .  A
O263        C264   1.333       .  A
C264        C265   1.393       .  A
C265        H271   1.083       .  S
O266        C267   1.332       .  A
C267        C268   1.393       .  A
C268        H272   1.082       .  S
C273        C278   1.380       .  A
C273        C274   1.401       .  A
C273        O279   1.315       .  A
C274        C275   1.400       .  A
C274        H285   1.083       .  S
C275        C284   1.361       .  A
C275        C276   1.380       .  A
C276        C277   1.407       .  A
C276        O282   1.320       .  A
C277        C278   1.405       .  A
C277        H286   1.083       .  S
C278        C281   1.367       .  A
O279        C280   1.329       .  A
C280        C281   1.393       .  A
C281        H287   1.083       .  S
O282        C283   1.333       .  A
C283        C284   1.390       .  A
C284        H288   1.083       .  S
C289        C294   1.380       .  A
C289        C962   1.405       .  A
C289        O295   1.323       .  A
C290        C291   1.407       .  A
C290        C961   1.406       .  A
C290        H301   1.082       .  S
C291        C300   1.362       .  A
C291        C964   1.381       .  A
C292        C293   1.400       .  A
C292        C963   1.381   1_554  A
C292        O298   1.319   1_554  A
C293        C294   1.401       .  A
C293        H302   1.083       .  S
C294        C297   1.356   1_545  A
O295        C296   1.332       .  A
C296        C297   1.392   1_545  A
C297        H303   1.083       .  S
O298        C971   1.328       .  A
C299        C300   1.395       .  A
C299        O970   1.329       .  A
C300        H304   1.083       .  S
C305        C310   1.381       .  A
C305        C306   1.403       .  A
C305        O311   1.321       .  A
C306        C307   1.403       .  A
C306        H317   1.083   1_545  S
C307        C316   1.358   1_545  A
C307        C308   1.381       .  A
C308        C309   1.401       .  A
C308        O314   1.319       .  A
C309        C310   1.402       .  A
C309        H318   1.083       .  S
C310        C313   1.357       .  A
O311        C312   1.331       .  A
C312        C313   1.392       .  A
C313        H319   1.083       .  S
O314        C315   1.330   1_545  A
C315        C316   1.392       .  A
C316        H320   1.083       .  S
C321        C326   1.380       .  A
C321        C322   1.405       .  A
C321        O327   1.320       .  A
C322        C323   1.404       .  A
C322        H333   1.082       .  S
C323        C332   1.364       .  A
C323        C324   1.380       .  A
C324        C325   1.405       .  A
C324        O330   1.320       .  A
C325        C326   1.404       .  A
C325        H334   1.082       .  S
C326        C329   1.364       .  A
O327        C328   1.332       .  A
C328        C329   1.392       .  A
C329        H335   1.082       .  S
O330        C331   1.331       .  A
C331        C332   1.393       .  A
C332        H336   1.083       .  S
C337        C342   1.380       .  A
C337        C338   1.403       .  A
C337        O343   1.318       .  A
C338        C339   1.402       .  A
C338        H349   1.082       .  S
C339        C348   1.363       .  A
C339        C340   1.380       .  A
C340        C341   1.406       .  A
C340        O346   1.319       .  A
C341        C342   1.404       .  A
C341        H350   1.082       .  S
C342        C345   1.364       .  A
O343        C344   1.330       .  A
C344        C345   1.394       .  A
C345        H351   1.083       .  S
O346        C347   1.332       .  A
C347        C348   1.391       .  A
C348        H352   1.082       .  S
C353        C358   1.381       .  A
C353       C1026   1.401       .  A
C353        O359   1.323       .  A
C354        C355   1.404       .  A
C354       C1025   1.402   1_554  A
C354        H365   1.084       .  S
C355        C364   1.356       .  A
C355        C356   1.380       .  A
C356       C1029   1.405   1_554  A
C356        O362   1.325       .  A
C357        C358   1.405       .  A
C357       C1028   1.403       .  A
C357        H366   1.084       .  S
C358        C361   1.358       .  A
O359        C360   1.331       .  A
C360        C361   1.394       .  A
C361        H367   1.083       .  S
O362        C363   1.333       .  A
C363        C364   1.392       .  A
C364        H368   1.083       .  S
C369        C374   1.380       .  A
C369        C370   1.402       .  A
C369        O375   1.314       .  A
C370        C371   1.399       .  A
C370        H381   1.082       .  S
C371        C380   1.364       .  A
C371        C372   1.380       .  A
C372        C373   1.407       .  A
C372        O378   1.318       .  A
C373        C374   1.404       .  A
C373        H382   1.082       .  S
C374        C377   1.369       .  A
O375        C376   1.330       .  A
C376        C377   1.393       .  A
C377        H383   1.082       .  S
O378        C379   1.333       .  A
C379        C380   1.390       .  A
C380        H384   1.082       .  S
C385        C390   1.379       .  A
C385        C386   1.407       .  A
C385        O391   1.323       .  A
C386        C387   1.407       .  A
C386        H397   1.082       .  S
C387        C396   1.365       .  A
C387        C388   1.380       .  A
C388        C389   1.406       .  A
C388        O394   1.323       .  A
C389        C390   1.406       .  A
C389        H398   1.082       .  S
C390        C393   1.363       .  A
O391        C392   1.335       .  A
C392        C393   1.394       .  A
C393        H399   1.083       .  S
O394        C395   1.332       .  A
C395        C396   1.392       .  A
C396        H400   1.082       .  S
C401        C406   1.379       .  A
C401        C402   1.405       .  A
C401       O1079   1.326       .  A
C402        C403   1.407       .  A
C402        H413   1.083       .  S
C403        C412   1.358       .  A
C403        C404   1.378       .  A
C404        C405   1.408       .  A
C404        O410   1.328       .  A
C405        C406   1.410       .  A
C405        H414   1.083       .  S
C406       C1081   1.364       .  A
O407        C408   1.332   1_556  A
O407       C1073   1.324       .  A
C408        C409   1.397       .  A
C409       C1078   1.366   1_554  A
C409        H415   1.082       .  S
O410        C411   1.336       .  A
C411        C412   1.400       .  A
C412        H416   1.078       .  S
C417        C422   1.380       .  A
C417        C418   1.406       .  A
C417        O423   1.322       .  A
C418        C419   1.405       .  A
C418        H429   1.084       .  S
C419        C428   1.363       .  A
C419        C420   1.381       .  A
C420        C421   1.403       .  A
C420        O426   1.319       .  A
C421        C422   1.403       .  A
C421        H430   1.084       .  S
C422        C425   1.362       .  A
O423        C424   1.332       .  A
C424        C425   1.391       .  A
C425        H431   1.083       .  S
O426        C427   1.329       .  A
C427        C428   1.390       .  A
C428        H432   1.083       .  S
C433        C438   1.378       .  A
C433        C434   1.411       .  A
C433        O439   1.323       .  A
C434        C435   1.409   1_655  A
C434        H445   1.084       .  S
C435        C444   1.372       .  A
C435        C436   1.379       .  A
C436        C437   1.408   1_455  A
C436        O442   1.323       .  A
C437        C438   1.407       .  A
C437        H446   1.083   1_655  S
C438        C441   1.370       .  A
O439        C440   1.336       .  A
C440        C441   1.393       .  A
C441        H447   1.083       .  S
O442        C443   1.334       .  A
C443        C444   1.396       .  A
C444        H448   1.083       .  S
C449        C454   1.377       .  A
C449        C450   1.415       .  A
C449        O455   1.330       .  A
C450        C451   1.416       .  A
C450        H461   1.081       .  S
C451        C460   1.374       .  A
C451        C452   1.379       .  A
C452        C453   1.404       .  A
C452        O458   1.322       .  A
C453        C454   1.404       .  A
C453        H462   1.081       .  S
C454        C457   1.360       .  A
O455        C456   1.340       .  A
C456        C457   1.398       .  A
C457        H463   1.079       .  S
O458        C459   1.331       .  A
C459        C460   1.400       .  A
C460        H464   1.082       .  S
C465        C470   1.381       .  A
C465       C1138   1.400       .  A
C465        O471   1.317       .  A
C466        C467   1.402       .  A
C466       C1137   1.403       .  A
C466        H477   1.082       .  S
C467        C476   1.360       .  A
C467        C468   1.381       .  A
C468       C1141   1.405       .  A
C468        O474   1.321       .  A
C469        C470   1.407       .  A
C469       C1140   1.406   1_554  A
C469        H478   1.082       .  S
C470        C473   1.366       .  A
O471        C472   1.329       .  A
C472        C473   1.392       .  A
C473        H479   1.082       .  S
O474        C475   1.331       .  A
C475        C476   1.391       .  A
C476        H480   1.083       .  S
C481        C486   1.379       .  A
C481        C482   1.404       .  A
C481        O487   1.321       .  A
C482        C483   1.404       .  A
C482        H493   1.083       .  S
C483        C492   1.362       .  A
C483        C484   1.380       .  A
C484        C485   1.411       .  A
C484        O490   1.328       .  A
C485        C486   1.412       .  A
C485        H494   1.083       .  S
C486        C489   1.370       .  A
O487        C488   1.332       .  A
C488        C489   1.396       .  A
C489        H495   1.082       .  S
O490        C491   1.335       .  A
C491        C492   1.391       .  A
C492        H496   1.083       .  S
C497        C502   1.380       .  A
C497        C498   1.398       .  A
C497        O503   1.316       .  A
C498       C1171   1.397       .  A
C498        H509   1.084       .  S
C499        C508   1.354       .  A
C499        C500   1.378       .  A
C499       C1170   1.398       .  A
C500        C501   1.417   1_554  A
C500        O506   1.333       .  A
C501       C1174   1.418       .  A
C501        H510   1.083       .  S
C502        C505   1.377       .  A
C502       C1173   1.417       .  A
O503        C504   1.329       .  A
C504        C505   1.399       .  A
C505        H511   1.082       .  S
O506        C507   1.340       .  A
C507        C508   1.390       .  A
C508        H512   1.084       .  S
C513        C518   1.378       .  A
C513        C514   1.407       .  A
C513        O519   1.321       .  A
C514        C515   1.407       .  A
C514        H525   1.082       .  S
C515        C524   1.366       .  A
C515        C516   1.380       .  A
C516        C517   1.406       .  A
C516        O522   1.322       .  A
C517        C518   1.405       .  A
C517        H526   1.082       .  S
C518        C521   1.364       .  A
O519        C520   1.333       .  A
C520        C521   1.397       .  A
C521        H527   1.079       .  S
O522        C523   1.333       .  A
C523        C524   1.395       .  A
C524        H528   1.082       .  S
C529        C534   1.379       .  A
C529        C530   1.405       .  A
C529        O535   1.322       .  A
C530        C531   1.405       .  A
C530        H541   1.083       .  S
C531        C540   1.363       .  A
C531        C532   1.379       .  A
C532        C533   1.410       .  A
C532        O538   1.328       .  A
C533        C534   1.411       .  A
C533        H542   1.083       .  S
C534        C537   1.367       .  A
O535        C536   1.333       .  A
C536        C537   1.397       .  A
C537        H543   1.083       .  S
O538        C539   1.336       .  A
C539        C540   1.393       .  A
C540        H544   1.083       .  S
C545        C550   1.378       .  A
C545        C546   1.409       .  A
C545        O551   1.322       .  A
C546        C547   1.407       .  A
C546        H557   1.082       .  S
C547        C556   1.369       .  A
C547        C548   1.379       .  A
C548        C549   1.410       .  A
C548        O554   1.325       .  A
C549        C550   1.409       .  A
C549        H558   1.082       .  S
C550        C553   1.370       .  A
O551        C552   1.335       .  A
C552        C553   1.399       .  A
C553        H559   1.082       .  S
O554        C555   1.335       .  A
C555        C556   1.395       .  A
C556        H560   1.082       .  S
C561        C562   1.401       .  A
C561       C1238   1.381       .  A
C561       O1239   1.319   1_554  A
C562        C563   1.401       .  A
C562        H573   1.082       .  S
C563        C572   1.355       .  A
C563        C564   1.379       .  A
C564        C565   1.408       .  A
C564        O570   1.326       .  A
C565       C1238   1.409       .  A
C565        H574   1.082       .  S
C566        C569   1.363       .  A
C566       C1233   1.380       .  A
C566       C1237   1.406       .  A
O567        C568   1.332       .  A
O567       C1233   1.321       .  A
C568        C569   1.393       .  A
C569        H575   1.082   1_655  S
O570        C571   1.333       .  A
C571        C572   1.392       .  A
C572        H576   1.083       .  S
C577        C582   1.379       .  A
C577        C578   1.408       .  A
C577        O583   1.320       .  A
C578        C579   1.406       .  A
C578        H589   1.083       .  S
C579        C588   1.369       .  A
C579        C580   1.379       .  A
C580        C581   1.409       .  A
C580        O586   1.322       .  A
C581        C582   1.407       .  A
C581        H590   1.083       .  S
C582        C585   1.370       .  A
O583        C584   1.333       .  A
C584        C585   1.394       .  A
C585        H591   1.083       .  S
O586        C587   1.334       .  A
C587        C588   1.394       .  A
C588        H592   1.083       .  S
C593        C598   1.378       .  A
C593        C594   1.411       .  A
C593        O599   1.328       .  A
C594       C1267   1.412       .  A
C594       H1277   1.081       .  S
C595        C604   1.366   1_556  A
C595       C1266   1.410       .  A
C595       C1268   1.380       .  A
C596        C597   1.402       .  A
C596       C1267   1.380       .  A
C596       O1274   1.322       .  A
C597        C598   1.404       .  A
C597        H606   1.081       .  S
C598        C601   1.357       .  A
O599        C600   1.336       .  A
C600        C601   1.398       .  A
C601        H607   1.080       .  S
O602        C603   1.332   1_556  A
O602       C1268   1.323       .  A
C603        C604   1.396       .  A
C604        H608   1.081       .  S
H605       C1266   1.081       .  S
C609        C614   1.380       .  A
C609        C610   1.404       .  A
C609        O615   1.319       .  A
C610        C611   1.403       .  A
C610        H621   1.084       .  S
C611        C620   1.363       .  A
C611        C612   1.381       .  A
C612        C613   1.405       .  A
C612        O618   1.321       .  A
C613        C614   1.404       .  A
C613        H622   1.084       .  S
C614        C617   1.363       .  A
O615        C616   1.331       .  A
C616        C617   1.392       .  A
C617        H623   1.083       .  S
O618        C619   1.331       .  A
C619        C620   1.390       .  A
C620        H624   1.083       .  S
C625        C630   1.380       .  A
C625        C626   1.409       .  A
C625        O631   1.327       .  A
C626        C627   1.410       .  A
C626        H637   1.083       .  S
C627        C636   1.367       .  A
C627        C628   1.380       .  A
C628        C629   1.404       .  A
C628        O634   1.321       .  A
C629        C630   1.404       .  A
C629        H638   1.083       .  S
C630        C633   1.360       .  A
O631        C632   1.334       .  A
C632        C633   1.391       .  A
C633        H639   1.083       .  S
O634        C635   1.332       .  A
C635        C636   1.395       .  A
C636        H640   1.083       .  S
C641        C646   1.379       .  A
C641        C642   1.407       .  A
C641        O647   1.323       .  A
C642        C643   1.407       .  A
C642        H653   1.082       .  S
C643        C652   1.366       .  A
C643        C644   1.380       .  A
C644        C645   1.406       .  A
C644        O650   1.323       .  A
C645        C646   1.406       .  A
C645        H654   1.082       .  S
C646        C649   1.364       .  A
O647        C648   1.335       .  A
C648        C649   1.397       .  A
C649        H655   1.081       .  S
O650        C651   1.333       .  A
C651        C652   1.393       .  A
C652        H656   1.082       .  S
C657        C658   1.401       .  A
C657       C1334   1.381       .  A
C657       O1335   1.319   1_554  A
C658        C659   1.401       .  A
C658        H669   1.085       .  S
C659        C668   1.359       .  A
C659        C660   1.381       .  A
C660        C661   1.406       .  A
C660        O666   1.322       .  A
C661       C1334   1.405       .  A
C661       H1342   1.084       .  S
C662        C665   1.366       .  A
C662       C1329   1.381       .  A
C662       C1333   1.407       .  A
O663        C664   1.330       .  A
O663       C1329   1.319       .  A
C664        C665   1.394       .  A
C665        H671   1.083       .  S
O666        C667   1.331       .  A
C667        C668   1.389       .  A
C668        H672   1.084       .  S
H670       C1333   1.084       .  S
N673        C677   1.358       .  A
N673        C674   1.359       .  A
N673       C1320   1.446       .  S
C674        C675   1.383       .  A
C674       C1307   1.480       .  S
C675        C676   1.375       .  A
C675        H678   1.083       .  S
C676        C677   1.379       .  A
C676        H679   1.082       .  S
C677       C1339   1.473       .  S
N680        C684   1.361       .  A
N680        C681   1.363       .  A
N680       C1272   1.452       .  S
C681        C682   1.386       .  A
C681       C1256   1.480       .  S
C682        C683   1.372       .  A
C682        H685   1.083       .  S
C683        C684   1.376       .  A
C683        H686   1.083       .  S
C684       C1288   1.478       .  S
N687        C691   1.358       .  A
N687        C688   1.363       .  A
N687       C1224   1.451       .  S
C688        C689   1.384       .  A
C688       C1208   1.478       .  S
C689        C690   1.371       .  A
C689        H692   1.083       .  S
C690        C691   1.378       .  A
C690        H693   1.083       .  S
C691       C1243   1.472       .  S
N694        C698   1.367       .  A
N694        C695   1.368       .  A
N694       C1192   1.448       .  S
C695        C696   1.379       .  A
C695       C1160   1.480       .  S
C696        C697   1.369       .  A
C696        H699   1.083       .  S
C697        C698   1.381       .  A
C697        H700   1.083       .  S
C698       C1176   1.486       .  S
N701        C705   1.362       .  A
N701        C702   1.362       .  A
N701       C1128   1.453       .  S
C702        C703   1.384       .  A
C702       C1112   1.479       .  S
C703        C704   1.370       .  A
C703        H706   1.083       .  S
C704        C705   1.377       .  A
C704        H707   1.083       .  S
C705       C1144   1.473       .  S
N708        C712   1.363       .  A
N708        C709   1.364       .  A
N708       C1083   1.454       .  S
C709        C710   1.384       .  A
C709       C1064   1.481       .  S
C710        C711   1.371       .  A
C710        H713   1.083       .  S
C711        C712   1.377       .  A
C711        H714   1.083       .  S
C712       C1099   1.475       .  S
O715        C731   1.278       .  A
O715       Zn721   2.056       .  S
C716       C1240   1.476       .  S
C716        O732   1.278       .  A
C716        O729   1.278   1_655  A
O717        C730   1.271       .  A
O717       Cd724   2.051   1_655  S
O718        C736   1.280       .  A
O718       Cd727   2.119       .  S
O719        C733   1.280       .  A
O719       Cd723   2.102       .  S
O720        C731   1.281   1_455  A
O720       Cd723   2.109       .  S
Zn721       O732   2.040       .  S
Zn721       O734   2.038       .  S
Zn721       O726   1.956   1_655  S
O722        C733   1.279       .  A
O722       Cd727   2.093       .  S
Cd723       O725   2.103       .  S
Cd723       O726   2.012       .  S
Cd724       O728   2.044       .  S
Cd724       O737   2.050       .  S
Cd724       O726   1.994       .  S
O725        C735   1.278       .  A
O726       Cd727   2.013       .  S
Cd727       O729   2.092       .  S
O728        C735   1.271       .  A
C730       C1016   1.468       .  S
C730        O734   1.275       .  A
C731       C1227   1.490       .  S
C733       C1067   1.480       .  S
C735       C1048   1.471       .  S
C736       C1032   1.480       .  S
C736        O737   1.271       .  A
O738        C754   1.277       .  A
O738       Zn744   2.030       .  S
C739       C1291   1.470       .  S
C739        O755   1.275       .  A
C739        O752   1.277       .  A
O740        C753   1.271       .  A
O740       Cd747   2.067       .  S
O741        C759   1.279       .  A
O741       Cd750   2.106       .  S
O742        C756   1.281       .  A
O742       Cd746   2.118       .  S
O743        C754   1.281       .  A
O743       Cd746   2.106       .  S
Zn744       O755   2.032       .  S
Zn744       O757   2.034       .  S
Zn744       O749   1.960       .  S
O745        C756   1.276       .  A
O745       Cd750   2.084       .  S
Cd746       O748   2.106       .  S
Cd746       O749   2.027       .  S
Cd747       O751   2.037       .  S
Cd747       O760   2.053       .  S
Cd747       O749   1.998       .  S
O748        C758   1.278       .  A
O749       Cd750   2.008       .  S
Cd750       O752   2.089       .  S
O751        C758   1.271       .  A
C753       C1000   1.474       .  S
C753        O757   1.274       .  A
C754       C1275   1.482       .  S
C756       C1115   1.485       .  S
C758       C1035   1.473       .  S
C759       C1051   1.474       .  S
C759        O760   1.271       .  A
O761        C777   1.276       .  A
O761       Zn767   2.023       .  S
C762       C1336   1.472       .  S
C762        O778   1.276       .  A
C762        O775   1.274       .  A
O763        C776   1.269       .  A
O763       Cd770   2.041       .  S
O764        C782   1.278       .  A
O764       Cd773   2.095       .  S
O765        C779   1.283       .  A
O765       Cd769   2.117       .  S
O766        C777   1.280       .  A
O766       Cd769   2.105       .  S
Zn767       O778   2.033       .  S
Zn767       O780   2.034       .  S
Zn767       O772   1.951       .  S
O768        C779   1.276       .  A
O768       Cd773   2.083       .  S
Cd769       O771   2.092       .  S
Cd769       O772   2.011       .  S
Cd770       O774   2.042       .  S
Cd770       O783   2.049       .  S
Cd770       O772   1.991       .  S
O771        C781   1.277       .  A
O772       Cd773   2.002       .  S
Cd773       O775   2.071       .  S
O774        C781   1.271       .  A
C776        C952   1.465       .  S
C776        O780   1.274       .  A
C777       C1323   1.477       .  S
C779       C1259   1.484   1_545  S
C781        C984   1.467       .  S
C782        C971   1.471       .  S
C782        O783   1.271       .  A
O784        C800   1.278       .  A
O784       Zn790   2.018       .  S
C785       C1195   1.478       .  S
C785        O801   1.278       .  A
C785        O798   1.277       .  A
O786        C799   1.273       .  A
O786       Cd793   2.069       .  S
O787        C805   1.275       .  A
O787       Cd796   2.079       .  S
O788        C802   1.282       .  A
O788       Cd792   2.121   1_545  S
O789        C800   1.282       .  A
O789       Cd792   2.125       .  S
Zn790       O801   2.047       .  S
Zn790       O803   2.041       .  S
Zn790       O795   1.941       .  S
O791        C802   1.277       .  A
O791       Cd796   2.080   1_545  S
Cd792       O794   2.106   1_565  S
Cd792       O795   2.028       .  S
Cd793       O797   2.048       .  S
Cd793       O806   2.048       .  S
Cd793       O795   1.992       .  S
O794        C804   1.278   1_545  A
O795       Cd796   2.002       .  S
Cd796       O798   2.081       .  S
O797        C804   1.273       .  A
C799        C936   1.478       .  S
C799        O803   1.273       .  A
C800       C1179   1.487       .  S
C802       C1211   1.483       .  S
C804        C968   1.475   1_565  S
C805        C987   1.465       .  S
C805        O806   1.272       .  A
C807        N808   1.358       .  A
C807        N812   1.360       .  A
C807        C955   1.470       .  S
N808        C809   1.358       .  A
C809        N810   1.356       .  A
C809        C920   1.466       .  S
N810        C811   1.355       .  A
C811        N812   1.359       .  A
C811       C1019   1.467       .  S
C813        N814   1.361       .  A
C813        N818   1.362       .  A
C813        C939   1.477       .  S
N814        C815   1.359       .  A
C815        N816   1.355       .  A
C815       C1003   1.473       .  S
N816        C817   1.356       .  A
C817        N818   1.361       .  A
C817        C904   1.471       .  S
O819        C835   1.278       .  A
O819       Zn825   2.025       .  S
C820       C1096   1.477       .  S
C820        O836   1.277       .  A
C820        O833   1.276       .  A
O821        C834   1.269       .  A
O821       Cd828   2.042       .  S
O822        C840   1.279       .  A
O822       Cd831   2.102       .  S
O823        C837   1.284       .  A
O823       Cd827   2.133       .  S
O824        C835   1.284       .  A
O824       Cd827   2.128       .  S
Zn825       O836   2.048       .  S
Zn825       O838   2.029       .  S
Zn825       O830   1.961       .  S
O826        C837   1.277       .  A
O826       Cd831   2.077       .  S
Cd827       O829   2.129       .  S
Cd827       O830   2.032       .  S
Cd828       O832   2.031       .  S
Cd828       O841   2.048       .  S
Cd828       O830   1.989       .  S
O829        C839   1.281       .  A
O830       Cd831   2.000       .  S
Cd831       O833   2.081       .  S
O832        C839   1.270       .  A
C834        C907   1.467       .  S
C834        O838   1.273       .  A
C835       C1080   1.486       .  S
C837       C1304   1.485       .  S
C839        C891   1.479       .  S
C840        C875   1.473       .  S
C840        O841   1.269       .  A
O842        C858   1.276       .  A
O842       Zn848   2.044       .  S
C843       C1147   1.468       .  S
C843        O859   1.275       .  A
C843        O856   1.277       .  A
O844        C857   1.271       .  A
O844       Cd851   2.049       .  S
O845        C863   1.278       .  A
O845       Cd854   2.108       .  S
O846        C860   1.280       .  A
O846       Cd850   2.114       .  S
O847        C858   1.281       .  A
O847       Cd850   2.107       .  S
Zn848       O859   2.007       .  S
Zn848       O861   2.036       .  S
Zn848       O853   1.956       .  S
O849        C860   1.277       .  A
O849       Cd854   2.082       .  S
Cd850       O852   2.113       .  S
Cd850       O853   2.011       .  S
Cd851       O855   2.036       .  S
Cd851       O864   2.051       .  S
Cd851       O853   1.988       .  S
O852        C862   1.280       .  A
O853       Cd854   2.011       .  S
Cd854       O856   2.088       .  S
O855        C862   1.271       .  A
C857        C923   1.469       .  S
C857        O861   1.274       .  A
C858       C1131   1.483       .  S
C860       C1163   1.479       .  S
C862        C872   1.472       .  S
C863        C888   1.478       .  S
C863        O864   1.270       .  A
C865        C870   1.380       .  A
C865        C866   1.401       .  A
C865        O871   1.313       .  A
C866        C867   1.398       .  A
C866        H877   1.083       .  S
C867        C876   1.362       .  A
C867        C868   1.379       .  A
C868        C869   1.410       .  A
C868        O874   1.320       .  A
C869        C870   1.407       .  A
C869        H878   1.083       .  S
C870        C873   1.372       .  A
O871        C872   1.330       .  A
C872        C873   1.394       .  A
C873        H879   1.082       .  S
O874        C875   1.335       .  A
C875        C876   1.388       .  A
C876        H880   1.083       .  S
C881        C886   1.381       .  A
C881        C882   1.400       .  A
C881        O887   1.322       .  A
C882        H893   1.083       .  S
C883        C892   1.354       .  A
C883        C884   1.380       .  A
C884        O890   1.327       .  A
C885        C886   1.411       .  A
C885        H894   1.082       .  S
C886        C889   1.363       .  A
O887        C888   1.330       .  A
C888        C889   1.396       .  A
C889        H895   1.082       .  S
O890        C891   1.333       .  A
C891        C892   1.393       .  A
C892        H896   1.083       .  S
C897        C902   1.381       .  A
C897        C898   1.402       .  A
C897        O903   1.320       .  A
C898        C899   1.402       .  A
C898        H909   1.082       .  S
C899        C908   1.357       .  A
C899        C900   1.381       .  A
C900        C901   1.402       .  A
C900        O906   1.320       .  A
C901        C902   1.403       .  A
C901        H910   1.082       .  S
C902        C905   1.359       .  A
O903        C904   1.330       .  A
C904        C905   1.392       .  A
C905        H911   1.083       .  S
O906        C907   1.330       .  A
C907        C908   1.391       .  A
C908        H912   1.083       .  S
C913        C918   1.381       .  A
C913        C914   1.400       .  A
C913        O919   1.317       .  A
C914        C915   1.400       .  A
C914        H925   1.082       .  S
C915        C924   1.357       .  A
C915        C916   1.381       .  A
C916        C917   1.403       .  A
C916        O922   1.320       .  A
C917        C918   1.403       .  A
C917        H926   1.082       .  S
C918        C921   1.360       .  A
O919        C920   1.329       .  A
C920        C921   1.392       .  A
C921        H927   1.082       .  S
O922        C923   1.331       .  A
C923        C924   1.390       .  A
C924        H928   1.083       .  S
C929        C934   1.380       .  A
C929        C930   1.408       .  A
C929        O935   1.323       .  A
C930        C931   1.407       .  A
C930        H941   1.082       .  S
C931        C940   1.367       .  A
C931        C932   1.380       .  A
C932        C933   1.403       .  A
C932        O938   1.319       .  A
C933        C934   1.402       .  A
C933        H942   1.083       .  S
C934        C937   1.361       .  A
O935        C936   1.334       .  A
C936        C937   1.392       .  A
C937        H943   1.083       .  S
O938        C939   1.331       .  A
C939        C940   1.394       .  A
C940        H944   1.082       .  S
C945        C950   1.381       .  A
C945        C946   1.399       .  A
C945        O951   1.314       .  A
C946        C947   1.398       .  A
C946        H957   1.083       .  S
C947        C956   1.358       .  A
C947        C948   1.380       .  A
C948        C949   1.406       .  A
C948        O954   1.319       .  A
C949        C950   1.404       .  A
C949        H958   1.083       .  S
C950        C953   1.365       .  A
O951        C952   1.328       .  A
C952        C953   1.392       .  A
C953        H959   1.082       .  S
O954        C955   1.332       .  A
C955        C956   1.389       .  A
C956        H960   1.083       .  S
C961        C966   1.380       .  A
C961        O967   1.324       .  A
C962        C963   1.406   1_554  A
C962        H973   1.082   1_554  S
C963        C972   1.362       .  A
C964        C965   1.400       .  A
C964        O970   1.320       .  A
C965        C966   1.401       .  A
C965        H974   1.082   1_545  S
C966        C969   1.355   1_545  A
O967        C968   1.333       .  A
C968        C969   1.391   1_545  A
C969        H975   1.083       .  S
C971        C972   1.395       .  A
C972        H976   1.083       .  S
C977        C982   1.381       .  A
C977        C978   1.401       .  A
C977        O983   1.319       .  A
C978        C979   1.401       .  A
C978        H989   1.083       .  S
C979        C988   1.357   1_545  A
C979        C980   1.381       .  A
C980        C981   1.400       .  A
C980        O986   1.318       .  A
C981        C982   1.401       .  A
C981        H990   1.083       .  S
C982        C985   1.356       .  A
O983        C984   1.330       .  A
C984        C985   1.392       .  A
C985        H991   1.083       .  S
O986        C987   1.329   1_545  A
C987        C988   1.391       .  A
C988        H992   1.083       .  S
C993        C998   1.380       .  A
C993        C994   1.404       .  A
C993        O999   1.320       .  A
C994        C995   1.404       .  A
C994       H1005   1.083       .  S
C995       C1004   1.361       .  A
C995        C996   1.380       .  A
C996        C997   1.404       .  A
C996       O1002   1.321       .  A
C997        C998   1.404       .  A
C997       H1006   1.082       .  S
C998       C1001   1.362       .  A
O999       C1000   1.332       .  A
C1000      C1001   1.392       .  A
C1001      H1007   1.082       .  S
O1002      C1003   1.331       .  A
C1003      C1004   1.393       .  A
C1004      H1008   1.083       .  S
C1009      C1014   1.381       .  A
C1009      C1010   1.402       .  A
C1009      O1015   1.317       .  A
C1010      C1011   1.401       .  A
C1010      H1021   1.082       .  S
C1011      C1020   1.361       .  A
C1011      C1012   1.380       .  A
C1012      C1013   1.403       .  A
C1012      O1018   1.317       .  A
C1013      C1014   1.402       .  A
C1013      H1022   1.083       .  S
C1014      C1017   1.361       .  A
O1015      C1016   1.329       .  A
C1016      C1017   1.393       .  A
C1017      H1023   1.083       .  S
O1018      C1019   1.331       .  A
C1019      C1020   1.390       .  A
C1020      H1024   1.082       .  S
C1025      C1030   1.381       .  A
C1025      O1031   1.324       .  A
C1026      C1027   1.403       .  A
C1026      H1037   1.084       .  S
C1027      C1036   1.355       .  A
C1027      C1028   1.381       .  A
C1028      O1034   1.324       .  A
C1029      C1030   1.407       .  A
C1029      H1038   1.084       .  S
C1030      C1033   1.361       .  A
O1031      C1032   1.331       .  A
C1032      C1033   1.395       .  A
C1033      H1039   1.083       .  S
O1034      C1035   1.332       .  A
C1035      C1036   1.392       .  A
C1036      H1040   1.083       .  S
C1041      C1046   1.380       .  A
C1041      C1042   1.403       .  A
C1041      O1047   1.315       .  A
C1042      C1043   1.401       .  A
C1042      H1053   1.082       .  S
C1043      C1052   1.365       .  A
C1043      C1044   1.380       .  A
C1044      C1045   1.407       .  A
C1044      O1050   1.319       .  A
C1045      C1046   1.404       .  A
C1045      H1054   1.082       .  S
C1046      C1049   1.368       .  A
O1047      C1048   1.331       .  A
C1048      C1049   1.393       .  A
C1049      H1055   1.082       .  S
O1050      C1051   1.333       .  A
C1051      C1052   1.391       .  A
C1052      H1056   1.082       .  S
C1057      C1062   1.378       .  A
C1057      C1058   1.409       .  A
C1057      O1063   1.324       .  A
C1058      C1059   1.408       .  A
C1058      H1069   1.082       .  S
C1059      C1068   1.367       .  A
C1059      C1060   1.379       .  A
C1060      C1061   1.407       .  A
C1060      O1066   1.323       .  A
C1061      C1062   1.407       .  A
C1061      H1070   1.082       .  S
C1062      C1065   1.365       .  A
O1063      C1064   1.335       .  A
C1064      C1065   1.394       .  A
C1065      H1071   1.083       .  S
O1066      C1067   1.333       .  A
C1067      C1068   1.394       .  A
C1068      H1072   1.082       .  S
C1073      C1078   1.380       .  A
C1073      C1074   1.404       .  A
C1074      C1075   1.406       .  A
C1074      H1085   1.083       .  S
C1075      C1084   1.359       .  A
C1075      C1076   1.377       .  A
C1076      C1077   1.410       .  A
C1076      O1082   1.327       .  A
C1077      C1078   1.411       .  A
C1077      H1086   1.083       .  S
O1079      C1080   1.334       .  A
C1080      C1081   1.396       .  A
C1081      H1087   1.082       .  S
O1082      C1083   1.337       .  A
C1083      C1084   1.400       .  A
C1084      H1088   1.079       .  S
C1089      C1094   1.380       .  A
C1089      C1090   1.408       .  A
C1089      O1095   1.325       .  A
C1090      C1091   1.408       .  A
C1090      H1101   1.084       .  S
C1091      C1100   1.365       .  A
C1091      C1092   1.381       .  A
C1092      C1093   1.403       .  A
C1092      O1098   1.321       .  A
C1093      C1094   1.403       .  A
C1093      H1102   1.084       .  S
C1094      C1097   1.361       .  A
O1095      C1096   1.335       .  A
C1096      C1097   1.389       .  A
C1097      H1103   1.083       .  S
O1098      C1099   1.330       .  A
C1099      C1100   1.392       .  A
C1100      H1104   1.083       .  S
C1105      C1110   1.378       .  A
C1105      C1106   1.411       .  A
C1105      O1111   1.322       .  A
C1106      C1107   1.409   1_655  A
C1106      H1117   1.084       .  S
C1107      C1116   1.373       .  A
C1107      C1108   1.379       .  A
C1108      C1109   1.406   1_455  A
C1108      O1114   1.320       .  A
C1109      C1110   1.405       .  A
C1109      H1118   1.083   1_655  S
C1110      C1113   1.368       .  A
O1111      C1112   1.335       .  A
C1112      C1113   1.392       .  A
C1113      H1119   1.083       .  S
O1114      C1115   1.332       .  A
C1115      C1116   1.396       .  A
C1116      H1120   1.083       .  S
C1121      C1126   1.377       .  A
C1121      C1122   1.415       .  A
C1121      O1127   1.329       .  A
C1122      C1123   1.415       .  A
C1122      H1133   1.081       .  S
C1123      C1132   1.375       .  A
C1123      C1124   1.379       .  A
C1124      C1125   1.401       .  A
C1124      O1130   1.319       .  A
C1125      C1126   1.402       .  A
C1125      H1134   1.081       .  S
C1126      C1129   1.359       .  A
O1127      C1128   1.340       .  A
C1128      C1129   1.396       .  A
C1129      H1135   1.079       .  S
O1130      C1131   1.329       .  A
C1131      C1132   1.400       .  A
C1132      H1136   1.082       .  S
C1137      C1142   1.381       .  A
C1137      O1143   1.319       .  A
C1138      C1139   1.399   1_554  A
C1138      H1149   1.083       .  S
C1139      C1148   1.357       .  A
C1139      C1140   1.380       .  A
C1140      O1146   1.322       .  A
C1141      C1142   1.405       .  A
C1141      H1150   1.082       .  S
C1142      C1145   1.364       .  A
O1143      C1144   1.330       .  A
C1144      C1145   1.391       .  A
C1145      H1151   1.082       .  S
O1146      C1147   1.332       .  A
C1147      C1148   1.389       .  A
C1148      H1152   1.083       .  S
C1153      C1158   1.380       .  A
C1153      C1154   1.405       .  A
C1153      O1159   1.322       .  A
C1154      C1155   1.404       .  A
C1154      H1165   1.083       .  S
C1155      C1164   1.363       .  A
C1155      C1156   1.380       .  A
C1156      C1157   1.409       .  A
C1156      O1162   1.326       .  A
C1157      C1158   1.410       .  A
C1157      H1166   1.083       .  S
C1158      C1161   1.368       .  A
O1159      C1160   1.332       .  A
C1160      C1161   1.395       .  A
C1161      H1167   1.083       .  S
O1162      C1163   1.334       .  A
C1163      C1164   1.391       .  A
C1164      H1168   1.083       .  S
C1169      C1174   1.379       .  A
C1169      C1170   1.398   1_556  A
C1169      O1175   1.315       .  A
C1170      H1181   1.084       .  S
C1171      C1180   1.353       .  A
C1171      C1172   1.379       .  A
C1172      C1173   1.417       .  A
C1172      O1178   1.333       .  A
C1173      H1182   1.083       .  S
C1174      C1177   1.378       .  A
O1175      C1176   1.329       .  A
C1176      C1177   1.400       .  A
C1177      H1183   1.082       .  S
O1178      C1179   1.339       .  A
C1179      C1180   1.389       .  A
C1180      H1184   1.084       .  S
C1185      C1190   1.378       .  A
C1185      C1186   1.405       .  A
C1185      O1191   1.319       .  A
C1186      C1187   1.405       .  A
C1186      H1197   1.082       .  S
C1187      C1196   1.364       .  A
C1187      C1188   1.380       .  A
C1188      C1189   1.405       .  A
C1188      O1194   1.321       .  A
C1189      C1190   1.405       .  A
C1189      H1198   1.082       .  S
C1190      C1193   1.364       .  A
O1191      C1192   1.332       .  A
C1192      C1193   1.398       .  A
C1193      H1199   1.079       .  S
O1194      C1195   1.332       .  A
C1195      C1196   1.394       .  A
C1196      H1200   1.082       .  S
C1201      C1206   1.379       .  A
C1201      C1202   1.407       .  A
C1201      O1207   1.323       .  A
C1202      C1203   1.406       .  A
C1202      H1213   1.083       .  S
C1203      C1212   1.365       .  A
C1203      C1204   1.379       .  A
C1204      C1205   1.408       .  A
C1204      O1210   1.325       .  A
C1205      C1206   1.408       .  A
C1205      H1214   1.083       .  S
C1206      C1209   1.365       .  A
O1207      C1208   1.333       .  A
C1208      C1209   1.395       .  A
C1209      H1215   1.083       .  S
O1210      C1211   1.334       .  A
C1211      C1212   1.393       .  A
C1212      H1216   1.083       .  S
C1217      C1222   1.379       .  A
C1217      C1218   1.407       .  A
C1217      O1223   1.321       .  A
C1218      C1219   1.406       .  A
C1218      H1229   1.082       .  S
C1219      C1228   1.366       .  A
C1219      C1220   1.379       .  A
C1220      C1221   1.412       .  A
C1220      O1226   1.327       .  A
C1221      C1222   1.412       .  A
C1221      H1230   1.082       .  S
C1222      C1225   1.373       .  A
O1223      C1224   1.334       .  A
C1224      C1225   1.398       .  A
C1225      H1231   1.082       .  S
O1226      C1227   1.337       .  A
C1227      C1228   1.394       .  A
C1228      H1232   1.082       .  S
C1233      C1234   1.404       .  A
C1234      C1235   1.404       .  A
C1234      H1245   1.082       .  S
C1235      C1244   1.360       .  A
C1235      C1236   1.381       .  A
C1236      C1237   1.405       .  A
C1236      O1242   1.323       .  A
C1237      H1246   1.082       .  S
C1238      C1241   1.367       .  A
O1239      C1240   1.330       .  A
C1240      C1241   1.395   1_556  A
C1241      H1247   1.082       .  S
O1242      C1243   1.331       .  A
C1243      C1244   1.390       .  A
C1244      H1248   1.083       .  S
C1249      C1254   1.379       .  A
C1249      C1250   1.407       .  A
C1249      O1255   1.320       .  A
C1250      C1251   1.405       .  A
C1250      H1261   1.083       .  S
C1251      C1260   1.368       .  A
C1251      C1252   1.379       .  A
C1252      C1253   1.410       .  A
C1252      O1258   1.324       .  A
C1253      C1254   1.409       .  A
C1253      H1262   1.083       .  S
C1254      C1257   1.371       .  A
O1255      C1256   1.334       .  A
C1256      C1257   1.395       .  A
C1257      H1263   1.083       .  S
O1258      C1259   1.335       .  A
C1259      C1260   1.393       .  A
C1260      H1264   1.083       .  S
C1265      C1270   1.379       .  A
C1265      C1266   1.409       .  A
C1265      O1271   1.328       .  A
C1267      C1276   1.368       .  A
C1268      C1269   1.404       .  A
C1269      C1270   1.406       .  A
C1269      H1278   1.081       .  S
C1270      C1273   1.358       .  A
O1271      C1272   1.335       .  A
C1272      C1273   1.399       .  A
C1273      H1279   1.080       .  S
O1274      C1275   1.331       .  A
C1275      C1276   1.397       .  A
C1276      H1280   1.081       .  S
C1281      C1286   1.380       .  A
C1281      C1282   1.404       .  A
C1281      O1287   1.319       .  A
C1282      C1283   1.403       .  A
C1282      H1293   1.084       .  S
C1283      C1292   1.363       .  A
C1283      C1284   1.381       .  A
C1284      C1285   1.406       .  A
C1284      O1290   1.322       .  A
C1285      C1286   1.405       .  A
C1285      H1294   1.084       .  S
C1286      C1289   1.363       .  A
O1287      C1288   1.331       .  A
C1288      C1289   1.392       .  A
C1289      H1295   1.083       .  S
O1290      C1291   1.332       .  A
C1291      C1292   1.389       .  A
C1292      H1296   1.083       .  S
C1297      C1302   1.380       .  A
C1297      C1298   1.409       .  A
C1297      O1303   1.328       .  A
C1298      C1299   1.410       .  A
C1298      H1309   1.083       .  S
C1299      C1308   1.366       .  A
C1299      C1300   1.380       .  A
C1300      C1301   1.406       .  A
C1300      O1306   1.324       .  A
C1301      C1302   1.406       .  A
C1301      H1310   1.083       .  S
C1302      C1305   1.362       .  A
O1303      C1304   1.335       .  A
C1304      C1305   1.393       .  A
C1305      H1311   1.083       .  S
O1306      C1307   1.333       .  A
C1307      C1308   1.394       .  A
C1308      H1312   1.083       .  S
C1313      C1318   1.379       .  A
C1313      C1314   1.406       .  A
C1313      O1319   1.322       .  A
C1314      C1315   1.405       .  A
C1314      H1325   1.082       .  S
C1315      C1324   1.363       .  A
C1315      C1316   1.380       .  A
C1316      C1317   1.406       .  A
C1316      O1322   1.323       .  A
C1317      C1318   1.407       .  A
C1317      H1326   1.082       .  S
C1318      C1321   1.363       .  A
O1319      C1320   1.334       .  A
C1320      C1321   1.398       .  A
C1321      H1327   1.080       .  S
O1322      C1323   1.333       .  A
C1323      C1324   1.392       .  A
C1324      H1328   1.082       .  S
C1329      C1330   1.402       .  A
C1330      C1331   1.401       .  A
C1330      H1341   1.085       .  S
C1331      C1340   1.359       .  A
C1331      C1332   1.381       .  A
C1332      C1333   1.407       .  A
C1332      O1338   1.323       .  A
C1334      C1337   1.364       .  A
O1335      C1336   1.330       .  A
C1336      C1337   1.393   1_556  A
C1337      H1343   1.083       .  S
O1338      C1339   1.332       .  A
C1339      C1340   1.388       .  A
C1340      H1344   1.084       .  S
