geometry optimzed in LAMMPS
_audit_creation_date              2020-11-30 
_audit_creation_method            'lammps2cif' 
_symmetry_space_group_name_H-M    'P1' 
_symmetry_Int_Tables_number       1 
_symmetry_cell_setting            triclinic 
loop_ 
_symmetry_equiv_pos_as_xyz 
  x,y,z 
_cell_length_a                    32.73556247 
_cell_length_b                    23.43434197357776 
_cell_length_c                    31.17738892050066 
_cell_angle_alpha                 90.03403282807687 
_cell_angle_beta                  89.97073237778594 
_cell_angle_gamma                 90.28661818403103 
loop_ 
_atom_site_label 
_atom_site_type_symbol 
_atom_site_fract_x 
_atom_site_fract_y 
_atom_site_fract_z 
_atom_site_charge 
C1          C  0.08337520  0.39890840  0.00014560     0.01500
C2          C  0.49781675  0.51581822  0.49984786     0.01500
Zn3        Zn  0.28683455  0.50641026  0.30175537     1.49700
Zn4        Zn  0.28664740  0.50649454  0.19835845     1.49400
Zn5        Zn  0.34307775  0.41874449  0.24983117     1.49100
Zn6        Zn  0.24476950  0.40394026  0.25005343     1.49500
O7          O  0.29037989  0.45886375  0.25000175    -1.80100
O8          O  0.28057911  0.58920675  0.28589212    -0.70800
O9          O  0.33734228  0.49958305  0.16174507    -0.70600
O10         O  0.37693370  0.43850672  0.30227410    -0.70100
O11         O  0.28050011  0.58924402  0.21441679    -0.70800
O12         O  0.33769016  0.49948590  0.33805713    -0.70400
O13         O  0.37670384  0.43854038  0.19722516    -0.71000
O14         O  0.26600358  0.32350275  0.24993348    -0.70400
O15         O  0.23822829  0.48407706  0.16156193    -0.71100
O16         O  0.33373710  0.33369026  0.24979892    -0.70500
O17         O  0.20897950  0.41293283  0.19769459    -0.71000
O18         O  0.20917176  0.41283698  0.30260682    -0.70900
O19         O  0.23858005  0.48384996  0.33877891    -0.70700
C20         C  0.27863777  0.61525294  0.25017611     0.81100
C21         C  0.37018657  0.47120588  0.16538508     0.81600
C22         C  0.37053149  0.47113978  0.33419650     0.80600
C23         C  0.30177237  0.30258141  0.24984634     0.80900
C24         C  0.21044332  0.44629010  0.16555342     0.82100
C25         C  0.21076765  0.44609235  0.33482907     0.81100
C26         C  0.33497982  0.02043720  0.24999929     0.01500
C27         C  0.24537015  0.89741501  0.24976561     0.01500
Zn28       Zn  0.09383919  0.99547823  0.49985895     1.49700
Zn29       Zn  0.03465890  0.90971909  0.05113433     1.49400
Zn30       Zn  0.99694925  0.01541871  0.49991183     1.49100
Zn31       Zn  0.03457499  0.90965095  0.44864850     1.49500
O32         O  0.04007304  0.95760496  0.49988071    -1.80100
O33         O  0.12669021  0.97352504  0.05206359    -0.70800
O34         O  0.98726306  0.93476129  0.08776828    -0.70600
O35         O  0.02077660  0.09475498  0.49992548    -0.70100
O36         O  0.08528669  0.91440484  0.08748581    -0.70800
O37         O  0.08804646  0.08130901  0.49999043    -0.70400
O38         O  0.46116013  0.00838349  0.05218300    -0.71000
O39         O  0.98709221  0.93456881  0.41213854    -0.70400
O40         O  0.02621729  0.82693485  0.03561008    -0.71100
O41         O  0.46110199  0.00835813  0.44770938    -0.70500
O42         O  0.02622203  0.82686380  0.46418750    -0.71000
O43         O  0.08512843  0.91444900  0.41214460    -0.70900
O44         O  0.12652992  0.97368510  0.44747512    -0.70700
C45         C  0.11901224  0.94107579  0.08377820     0.81100
C46         C  0.46123301  0.97454485  0.08403405     0.81600
C47         C  0.05714501  0.11402216  0.49998193     0.80600
C48         C  0.46109781  0.97440748  0.41589429     0.80900
C49         C  0.02371675  0.80083818  0.49987786     0.82100
C50         C  0.11881771  0.94123252  0.41575146     0.81100
C51         C  0.14893093  0.93451571  0.38276858    -0.14500
C52         C  0.17290372  0.92756054  0.35393981     0.09500
C53         C  0.19937460  0.91813349  0.31899736     0.11400
C54         C  0.22070214  0.90916403  0.28823522    -0.15400
C55         C  0.22089254  0.90897494  0.21116058    -0.14500
C56         C  0.19964825  0.91784455  0.18034502     0.09500
C57         C  0.17319971  0.92724362  0.14541001     0.11400
C58         C  0.14919915  0.93424627  0.11664140    -0.15400
C59         C  0.29521003  0.98620227  0.24990659    -0.12400
C60         C  0.28515324  0.93161992  0.24983652    -0.27600
H61         H  0.31384396  0.94121735  0.24997026     0.16600
H62         H  0.26651695  0.97660219  0.24975542     0.17200
C63         C  0.43126748  0.98196403  0.38277030    -0.14500
C64         C  0.40735668  0.98955620  0.35400878     0.09500
C65         C  0.38084849  0.99955066  0.31922455     0.11400
C66         C  0.35950906  0.00876151  0.28854288    -0.15400
C67         C  0.43143950  0.98214657  0.11721658    -0.14500
C68         C  0.40754401  0.98970344  0.14602352     0.09500
C69         C  0.38102649  0.99960914  0.18084170     0.11400
C70         C  0.35963829  0.00876152  0.21152094    -0.15400
C71         C  0.25556698  0.83667887  0.24986575    -0.14500
C72         C  0.26261776  0.78626749  0.24999568     0.09500
C73         C  0.26932451  0.72692465  0.25014380     0.11400
C74         C  0.27398447  0.67599666  0.25021147    -0.15400
C75         C  0.30626831  0.24181865  0.24982663    -0.14500
C76         C  0.31087947  0.19088344  0.24985901     0.09500
C77         C  0.31762883  0.13155256  0.24993293     0.11400
C78         C  0.32475011  0.08116160  0.24998954    -0.15400
C79         C  0.40117351  0.47625275  0.36707385    -0.13500
C80         C  0.42563717  0.48210551  0.39574933     0.09500
C81         C  0.45264432  0.49101467  0.43057158     0.11400
C82         C  0.47405175  0.50078723  0.46130165    -0.15400
C83         C  0.47380559  0.50084972  0.03824912    -0.14500
C84         C  0.45225006  0.49109181  0.06888112     0.09500
C85         C  0.42516320  0.48218902  0.10365633     0.11400
C86         C  0.40071510  0.47633685  0.13236649    -0.15400
C87         C  0.01825667  0.74003139  0.49988179    -0.14500
C88         C  0.01398256  0.68890094  0.49988706     0.09500
C89         C  0.50889297  0.62904271  0.49988463     0.11400
C90         C  0.50416805  0.57795114  0.49987211    -0.15400
C91         C  0.04231614  0.42865919  0.00001897    -0.12400
C92         C  0.03884421  0.48595610  0.99999091    -0.27600
H93         H  0.01454363  0.40293034  0.49995647     0.16600
H94         H  0.06664525  0.51163377  0.00007097     0.17200
C95         C  0.18060320  0.44018686  0.36810832    -0.14500
C96         C  0.15621089  0.43368954  0.39677280     0.09500
C97         C  0.12902449  0.42414955  0.43133316     0.11400
C98         C  0.10737711  0.41403065  0.46180759    -0.15400
C99         C  0.18018574  0.44043370  0.13238864    -0.14500
C100        C  0.15578672  0.43392737  0.10375105     0.09500
C101        C  0.12867470  0.42432199  0.06915564     0.11400
C102        C  0.10715293  0.41411981  0.03861200    -0.15400
C103        C  0.06336973  0.17467703  0.50004012    -0.14500
C104        C  0.06785105  0.22576692  0.50008932     0.09500
C105        C  0.07278513  0.28563781  0.50013851     0.11400
C106        C  0.07724360  0.33676756  0.50016245    -0.15400
C107        C  0.08338176  0.39892569  0.50015890     0.01500
C108        C  0.49783642  0.51583344  0.99986217     0.01500
Zn109      Zn  0.28683785  0.50641148  0.80176337     1.49700
Zn110      Zn  0.28665532  0.50649113  0.69836926     1.49400
Zn111      Zn  0.34309787  0.41875586  0.74984855     1.49100
Zn112      Zn  0.24479356  0.40392011  0.75005897     1.49500
O113        O  0.29039387  0.45886056  0.75001227    -1.80100
O114        O  0.28056150  0.58920560  0.78589785    -0.70800
O115        O  0.33734320  0.49956946  0.66174857    -0.70600
O116        O  0.37696134  0.43856996  0.80227643    -0.70100
O117        O  0.28050860  0.58924268  0.71442295    -0.70800
O118        O  0.33769840  0.49952112  0.83806295    -0.70400
O119        O  0.37670725  0.43852557  0.69722551    -0.71000
O120        O  0.26604085  0.32348715  0.74995659    -0.70400
O121        O  0.23823077  0.48407765  0.66158052    -0.71100
O122        O  0.33377271  0.33369488  0.74985625    -0.70500
O123        O  0.20900278  0.41290264  0.69769717    -0.71000
O124        O  0.20918995  0.41281321  0.80260750    -0.70900
O125        O  0.23858862  0.48382843  0.83878627    -0.70700
C126        C  0.27862959  0.61525163  0.75018096     0.81100
C127        C  0.37018528  0.47118618  0.66538336     0.81600
C128        C  0.37055123  0.47120134  0.83419792     0.80600
C129        C  0.30181277  0.30257589  0.74989687     0.80900
C130        C  0.21045450  0.44627705  0.66556540     0.82100
C131        C  0.21078027  0.44606566  0.83483167     0.81100
C132        C  0.33499010  0.02041540  0.75002359     0.01500
C133        C  0.24536019  0.89741695  0.74974994     0.01500
Zn134      Zn  0.09385737  0.99549931  0.99986396     1.49700
Zn135      Zn  0.03461349  0.90970714  0.55110851     1.49400
Zn136      Zn  0.99695698  0.01537789  0.99991511     1.49100
Zn137      Zn  0.03461767  0.90962619  0.94867188     1.49500
O138        O  0.04010201  0.95759727  0.99989524    -1.80100
O139        O  0.12666064  0.97346864  0.55205824    -0.70800
O140        O  0.98722015  0.93476385  0.58774085    -0.70600
O141        O  0.02075916  0.09472682  0.99991122    -0.70100
O142        O  0.08523947  0.91436168  0.58747050    -0.70800
O143        O  0.08803397  0.08132165  0.99997943    -0.70400
O144        O  0.46114783  0.00842671  0.55217754    -0.71000
O145        O  0.98712746  0.93450064  0.91215301    -0.70400
O146        O  0.02615295  0.82692792  0.53556659    -0.71100
O147        O  0.46110912  0.00827618  0.94771596    -0.70500
O148        O  0.02628647  0.82684694  0.96423062    -0.71000
O149        O  0.08517048  0.91443264  0.91216943    -0.70900
O150        O  0.12655419  0.97370978  0.94748351    -0.70700
C151        C  0.11897171  0.94101870  0.58376960     0.81100
C152        C  0.46120590  0.97456989  0.58401800     0.81600
C153        C  0.05712190  0.11401486  0.99996424     0.80600
C154        C  0.46111742  0.97432033  0.91590410     0.80900
C155        C  0.02378658  0.80083358  0.99992611     0.82100
C156        C  0.11885153  0.94123778  0.91576868     0.81100
C157        C  0.14896483  0.93452467  0.88278570    -0.14500
C158        C  0.17293169  0.92757000  0.85395161     0.09500
C159        C  0.19938974  0.91814159  0.81899880     0.11400
C160        C  0.22070451  0.90916972  0.78822746    -0.15400
C161        C  0.22087158  0.90897607  0.71115137    -0.14500
C162        C  0.19961558  0.91782424  0.68034042     0.09500
C163        C  0.17315623  0.92719250  0.64540805     0.11400
C164        C  0.14915329  0.93418004  0.61663882    -0.15400
C165        C  0.29521300  0.98619501  0.74991269    -0.12400
C166        C  0.28514695  0.93161521  0.74981241    -0.27600
H167        H  0.31383867  0.94120416  0.74996239     0.16600
H168        H  0.26651596  0.97660089  0.74973448     0.17200
C169        C  0.43128511  0.98185332  0.88277768    -0.14500
C170        C  0.40737231  0.98944399  0.85401708     0.09500
C171        C  0.38086118  0.99945570  0.81923667     0.11400
C172        C  0.35952000  0.00869438  0.78856039    -0.15400
C173        C  0.43141548  0.98217634  0.61720326    -0.14500
C174        C  0.40752757  0.98973067  0.64601759     0.09500
C175        C  0.38102200  0.99962585  0.68084800     0.11400
C176        C  0.35964320  0.00876349  0.71153697    -0.15400
C177        C  0.25555226  0.83667851  0.74984939    -0.14500
C178        C  0.26259946  0.78626598  0.74998390     0.09500
C179        C  0.26930534  0.72692242  0.75014018     0.11400
C180        C  0.27396863  0.67599468  0.75021372    -0.15400
C181        C  0.30631696  0.24181246  0.74989764    -0.14500
C182        C  0.31092610  0.19087621  0.74993686     0.09500
C183        C  0.31766525  0.13154140  0.75000460     0.11400
C184        C  0.32477425  0.08114589  0.75004464    -0.15400
C185        C  0.40119494  0.47633684  0.86707224    -0.13500
C186        C  0.42565743  0.48219131  0.89574874     0.09500
C187        C  0.45266204  0.49108487  0.93057580     0.11400
C188        C  0.47406825  0.50083427  0.96131102    -0.15400
C189        C  0.47378948  0.50083712  0.53823732    -0.14500
C190        C  0.45223593  0.49107282  0.56886958     0.09500
C191        C  0.42515184  0.48216184  0.60364519     0.11400
C192        C  0.40070714  0.47630827  0.63235824    -0.15400
C193        C  0.01833327  0.74002861  0.99994005    -0.14500
C194        C  0.01405380  0.68890042  0.99994361     0.09500
C195        C  0.50894819  0.62904743  0.99992956     0.11400
C196        C  0.50420568  0.57796044  0.99990317    -0.15400
C197        C  0.04231648  0.42866183  0.50002699    -0.12400
C198        C  0.03883187  0.48595819  0.49998551    -0.27600
H199        H  0.01453790  0.40293912  0.99994438     0.16600
H200        H  0.06662691  0.51164827  0.50006038     0.17200
C201        C  0.18061245  0.44015340  0.86810649    -0.14500
C202        C  0.15621559  0.43365587  0.89676642     0.09500
C203        C  0.12902339  0.42412084  0.93132221     0.11400
C204        C  0.10737203  0.41400820  0.96179449    -0.15400
C205        C  0.18019189  0.44042974  0.63240419    -0.14500
C206        C  0.15578952  0.43393890  0.60376768     0.09500
C207        C  0.12867561  0.42434895  0.56917115     0.11400
C208        C  0.10715471  0.41414998  0.53862580    -0.15400
C209        C  0.06332966  0.17467124  0.00001367    -0.14500
C210        C  0.06780970  0.22576015  0.00006159     0.09500
C211        C  0.07275314  0.28562787  0.00011511     0.11400
C212        C  0.07722375  0.33675473  0.00014446    -0.15400
C213        C  0.58337521  0.39890842  0.00014560     0.01500
C214        C  0.99781673  0.51581821  0.49984788     0.01500
Zn215      Zn  0.78683453  0.50641025  0.30175538     1.49700
Zn216      Zn  0.78664737  0.50649453  0.19835844     1.49400
Zn217      Zn  0.84307772  0.41874450  0.24983117     1.49100
Zn218      Zn  0.74476962  0.40394025  0.25005343     1.49500
O219        O  0.79037991  0.45886379  0.25000175    -1.80100
O220        O  0.78057915  0.58920669  0.28589212    -0.70800
O221        O  0.83734225  0.49958305  0.16174507    -0.70600
O222        O  0.87693370  0.43850674  0.30227408    -0.70100
O223        O  0.78050014  0.58924396  0.21441679    -0.70800
O224        O  0.83769012  0.49948595  0.33805711    -0.70400
O225        O  0.87670380  0.43854038  0.19722515    -0.71000
O226        O  0.76600361  0.32350266  0.24993348    -0.70400
O227        O  0.73822825  0.48407707  0.16156192    -0.71100
O228        O  0.83373710  0.33369033  0.24979892    -0.70500
O229        O  0.70897952  0.41293283  0.19769461    -0.71000
O230        O  0.70917178  0.41283698  0.30260680    -0.70900
O231        O  0.73858002  0.48384996  0.33877891    -0.70700
C232        C  0.77863782  0.61525295  0.25017611     0.81100
C233        C  0.87018654  0.47120588  0.16538508     0.81600
C234        C  0.87053160  0.47113973  0.33419650     0.80600
C235        C  0.80177238  0.30258141  0.24984634     0.80900
C236        C  0.71044330  0.44629011  0.16555345     0.82100
C237        C  0.71076763  0.44609235  0.33482904     0.81100
C238        C  0.83497989  0.02043724  0.24999931     0.01500
C239        C  0.74537021  0.89741500  0.24976561     0.01500
Zn240      Zn  0.59383915  0.99547823  0.49985895     1.49700
Zn241      Zn  0.53465888  0.90971909  0.05113432     1.49400
Zn242      Zn  0.49694923  0.01541871  0.49991181     1.49100
Zn243      Zn  0.53457497  0.90965095  0.44864850     1.49500
O244        O  0.54007302  0.95760495  0.49988071    -1.80100
O245        O  0.62669017  0.97352504  0.05206359    -0.70800
O246        O  0.48726308  0.93476129  0.08776829    -0.70600
O247        O  0.52077657  0.09475499  0.49992548    -0.70100
O248        O  0.58528665  0.91440484  0.08748581    -0.70800
O249        O  0.58804642  0.08130901  0.49999043    -0.70400
O250        O  0.96116009  0.00838348  0.05218300    -0.71000
O251        O  0.48709222  0.93456891  0.41213855    -0.70400
O252        O  0.52621725  0.82693485  0.03561008    -0.71100
O253        O  0.96110212  0.00835819  0.44770934    -0.70500
O254        O  0.52622200  0.82686381  0.46418750    -0.71000
O255        O  0.58512846  0.91444901  0.41214457    -0.70900
O256        O  0.62652989  0.97368511  0.44747513    -0.70700
C257        C  0.61901220  0.94107578  0.08377820     0.81100
C258        C  0.96123297  0.97454485  0.08403405     0.81600
C259        C  0.55714498  0.11402216  0.49998193     0.80600
C260        C  0.96109784  0.97440749  0.41589427     0.80900
C261        C  0.52371677  0.80083817  0.49987785     0.82100
C262        C  0.61881770  0.94123251  0.41575149     0.81100
C263        C  0.64893103  0.93451569  0.38276860    -0.14500
C264        C  0.67290371  0.92756055  0.35393987     0.09500
C265        C  0.69937459  0.91813347  0.31899730     0.11400
C266        C  0.72070218  0.90916400  0.28823519    -0.15400
C267        C  0.72089257  0.90897492  0.21116059    -0.14500
C268        C  0.69964822  0.91784454  0.18034504     0.09500
C269        C  0.67319967  0.92724362  0.14541002     0.11400
C270        C  0.64919911  0.93424627  0.11664140    -0.15400
C271        C  0.79521007  0.98620231  0.24990660    -0.12400
C272        C  0.78515334  0.93161990  0.24983652    -0.27600
H273        H  0.81384397  0.94121733  0.24997027     0.16600
H274        H  0.76651705  0.97660241  0.24975540     0.17200
C275        C  0.93126748  0.98196405  0.38277037    -0.14500
C276        C  0.90735669  0.98955618  0.35400886     0.09500
C277        C  0.88084843  0.99955067  0.31922460     0.11400
C278        C  0.85950906  0.00876149  0.28854300    -0.15400
C279        C  0.93143947  0.98214657  0.11721658    -0.14500
C280        C  0.90754398  0.98970344  0.14602350     0.09500
C281        C  0.88102648  0.99960913  0.18084167     0.11400
C282        C  0.85963833  0.00876149  0.21152101    -0.15400
C283        C  0.75556718  0.83667884  0.24986575    -0.14500
C284        C  0.76261798  0.78626744  0.24999568     0.09500
C285        C  0.76932450  0.72692469  0.25014380     0.11400
C286        C  0.77398448  0.67599648  0.25021147    -0.15400
C287        C  0.80626841  0.24181863  0.24982663    -0.14500
C288        C  0.81087949  0.19088343  0.24985901     0.09500
C289        C  0.81762886  0.13155255  0.24993292     0.11400
C290        C  0.82475025  0.08116161  0.24998955    -0.15400
C291        C  0.90117349  0.47625276  0.36707381    -0.13500
C292        C  0.92563716  0.48210550  0.39574936     0.09500
C293        C  0.95264429  0.49101467  0.43057160     0.11400
C294        C  0.97405171  0.50078719  0.46130167    -0.15400
C295        C  0.97380557  0.50084972  0.03824912    -0.14500
C296        C  0.95225003  0.49109181  0.06888112     0.09500
C297        C  0.92516317  0.48218902  0.10365633     0.11400
C298        C  0.90071506  0.47633685  0.13236649    -0.15400
C299        C  0.51825681  0.74003139  0.49988179    -0.14500
C300        C  0.51398259  0.68890093  0.49988706     0.09500
C301        C  0.00889294  0.62904272  0.49988463     0.11400
C302        C  0.00416795  0.57795113  0.49987210    -0.15400
C303        C  0.54231613  0.42865919  0.00001897    -0.12400
C304        C  0.53884421  0.48595610  0.99999091    -0.27600
H305        H  0.51454359  0.40293033  0.49995648     0.16600
H306        H  0.56664526  0.51163376  0.00007097     0.17200
C307        C  0.68060318  0.44018687  0.36810827    -0.14500
C308        C  0.65621090  0.43368954  0.39677283     0.09500
C309        C  0.62902462  0.42414954  0.43133319     0.11400
C310        C  0.60737711  0.41403063  0.46180764    -0.15400
C311        C  0.68018572  0.44043371  0.13238868    -0.14500
C312        C  0.65578673  0.43392737  0.10375102     0.09500
C313        C  0.62867482  0.42432198  0.06915561     0.11400
C314        C  0.60715292  0.41411979  0.03861193    -0.15400
C315        C  0.56336969  0.17467703  0.50004012    -0.14500
C316        C  0.56785101  0.22576692  0.50008932     0.09500
C317        C  0.57278509  0.28563781  0.50013851     0.11400
C318        C  0.57724357  0.33676757  0.50016244    -0.15400
C319        C  0.58338174  0.39892569  0.50015887     0.01500
C320        C  0.99783641  0.51583344  0.99986217     0.01500
Zn321      Zn  0.78683785  0.50641149  0.80176338     1.49700
Zn322      Zn  0.78665532  0.50649114  0.69836924     1.49400
Zn323      Zn  0.84309799  0.41875587  0.74984855     1.49100
Zn324      Zn  0.74479359  0.40392010  0.75005897     1.49500
O325        O  0.79039391  0.45886053  0.75001227    -1.80100
O326        O  0.78056146  0.58920560  0.78589785    -0.70800
O327        O  0.83734328  0.49956952  0.66174860    -0.70600
O328        O  0.87696141  0.43856989  0.80227644    -0.70100
O329        O  0.78050857  0.58924268  0.71442296    -0.70800
O330        O  0.83769848  0.49952118  0.83806292    -0.70400
O331        O  0.87670732  0.43852550  0.69722549    -0.71000
O332        O  0.76604082  0.32348714  0.74995659    -0.70400
O333        O  0.73823076  0.48407774  0.66158050    -0.71100
O334        O  0.83377269  0.33369488  0.74985625    -0.70500
O335        O  0.70900290  0.41290259  0.69769715    -0.71000
O336        O  0.70919007  0.41281317  0.80260753    -0.70900
O337        O  0.73858862  0.48382852  0.83878630    -0.70700
C338        C  0.77862955  0.61525163  0.75018096     0.81100
C339        C  0.87018527  0.47118622  0.66538336     0.81600
C340        C  0.87055121  0.47120138  0.83419791     0.80600
C341        C  0.80181275  0.30257589  0.74989687     0.80900
C342        C  0.71045452  0.44627704  0.66556538     0.82100
C343        C  0.71078029  0.44606565  0.83483168     0.81100
C344        C  0.83499011  0.02041541  0.75002362     0.01500
C345        C  0.74536023  0.89741695  0.74974993     0.01500
Zn346      Zn  0.59385735  0.99549931  0.99986396     1.49700
Zn347      Zn  0.53461347  0.90970710  0.55110851     1.49400
Zn348      Zn  0.49695701  0.01537791  0.99991511     1.49100
Zn349      Zn  0.53461765  0.90962619  0.94867188     1.49500
O350        O  0.54010198  0.95759728  0.99989524    -1.80100
O351        O  0.62666053  0.97346859  0.55205831    -0.70800
O352        O  0.48722018  0.93476385  0.58774086    -0.70600
O353        O  0.52075926  0.09472674  0.99991122    -0.70100
O354        O  0.58523949  0.91436143  0.58747047    -0.70800
O355        O  0.58803405  0.08132171  0.99997943    -0.70400
O356        O  0.96114779  0.00842671  0.55217753    -0.71000
O357        O  0.48712748  0.93450064  0.91215301    -0.70400
O358        O  0.52615291  0.82692793  0.53556658    -0.71100
O359        O  0.96110908  0.00827618  0.94771596    -0.70500
O360        O  0.52628643  0.82684694  0.96423062    -0.71000
O361        O  0.58517045  0.91443264  0.91216943    -0.70900
O362        O  0.62655415  0.97370977  0.94748351    -0.70700
C363        C  0.61897172  0.94101861  0.58376961     0.81100
C364        C  0.96120587  0.97456988  0.58401800     0.81600
C365        C  0.55712209  0.11401488  0.99996424     0.80600
C366        C  0.96111740  0.97432032  0.91590411     0.80900
C367        C  0.52378654  0.80083358  0.99992611     0.82100
C368        C  0.61885149  0.94123777  0.91576868     0.81100
C369        C  0.64896479  0.93452467  0.88278570    -0.14500
C370        C  0.67293165  0.92757000  0.85395161     0.09500
C371        C  0.69938970  0.91814159  0.81899878     0.11400
C372        C  0.72070451  0.90916975  0.78822743    -0.15400
C373        C  0.72087175  0.90897608  0.71115140    -0.14500
C374        C  0.69961562  0.91782426  0.68034034     0.09500
C375        C  0.67315638  0.92719250  0.64540806     0.11400
C376        C  0.64915329  0.93418002  0.61663880    -0.15400
C377        C  0.79521300  0.98619499  0.74991271    -0.12400
C378        C  0.78514706  0.93161512  0.74981245    -0.27600
H379        H  0.81383868  0.94120410  0.74996240     0.16600
H380        H  0.76651605  0.97660102  0.74973452     0.17200
C381        C  0.93128509  0.98185330  0.88277773    -0.14500
C382        C  0.90737231  0.98944400  0.85401705     0.09500
C383        C  0.88086131  0.99945571  0.81923664     0.11400
C384        C  0.85952000  0.00869440  0.78856034    -0.15400
C385        C  0.93141544  0.98217634  0.61720326    -0.14500
C386        C  0.90752754  0.98973067  0.64601759     0.09500
C387        C  0.88102196  0.99962585  0.68084800     0.11400
C388        C  0.85964316  0.00876350  0.71153697    -0.15400
C389        C  0.75555226  0.83667851  0.74984940    -0.14500
C390        C  0.76259942  0.78626597  0.74998390     0.09500
C391        C  0.76930530  0.72692242  0.75014018     0.11400
C392        C  0.77396859  0.67599468  0.75021372    -0.15400
C393        C  0.80631699  0.24181249  0.74989764    -0.14500
C394        C  0.81092625  0.19087622  0.74993686     0.09500
C395        C  0.81766527  0.13154141  0.75000460     0.11400
C396        C  0.82477421  0.08114588  0.75004465    -0.15400
C397        C  0.90119498  0.47633678  0.86707225    -0.13500
C398        C  0.92565741  0.48219131  0.89574876     0.09500
C399        C  0.95266200  0.49108487  0.93057581     0.11400
C400        C  0.97406823  0.50083427  0.96131102    -0.15400
C401        C  0.97378958  0.50083709  0.53823733    -0.14500
C402        C  0.95223592  0.49107281  0.56886963     0.09500
C403        C  0.92515184  0.48216186  0.60364513     0.11400
C404        C  0.90070719  0.47630823  0.63235822    -0.15400
C405        C  0.51833323  0.74002861  0.99994005    -0.14500
C406        C  0.51405376  0.68890043  0.99994361     0.09500
C407        C  0.00894823  0.62904742  0.99992956     0.11400
C408        C  0.00420570  0.57796044  0.99990317    -0.15400
C409        C  0.54231645  0.42866181  0.50002698    -0.12400
C410        C  0.53883185  0.48595815  0.49998555    -0.27600
H411        H  0.51453788  0.40293913  0.99994438     0.16600
H412        H  0.56662691  0.51164817  0.50006039     0.17200
C413        C  0.68061245  0.44015338  0.86810641    -0.14500
C414        C  0.65621560  0.43365586  0.89676643     0.09500
C415        C  0.62902352  0.42412083  0.93132223     0.11400
C416        C  0.60737202  0.41400818  0.96179455    -0.15400
C417        C  0.68019186  0.44042971  0.63240423    -0.14500
C418        C  0.65578949  0.43393889  0.60376770     0.09500
C419        C  0.62867557  0.42434895  0.56917115     0.11400
C420        C  0.60715467  0.41414998  0.53862579    -0.15400
C421        C  0.56332969  0.17467122  0.00001367    -0.14500
C422        C  0.56780967  0.22576015  0.00006159     0.09500
C423        C  0.57275310  0.28562788  0.00011511     0.11400
C424        C  0.57722372  0.33675474  0.00014446    -0.15400
loop_ 
_geom_bond_atom_site_label_1 
_geom_bond_atom_site_label_2 
_geom_bond_distance 
_geom_bond_site_symmetry_2 
_ccdc_geom_bond_type 
C1           C91   1.517       .  S
C1          C102   1.473       .  S
C1          C204   1.473   1_554  S
C1          C212   1.469       .  S
C2          C410   1.517       .  S
C2           C82   1.474       .  S
C2           C90   1.470       .  S
C2          C189   1.474       .  S
Zn3           O7   1.964       .  S
Zn3           O8   2.014       .  S
Zn3          O12   2.021       .  S
Zn3          O19   2.024       .  S
Zn4           O7   1.964       .  S
Zn4           O9   2.021       .  S
Zn4          O11   2.014       .  S
Zn4          O15   2.024       .  S
Zn5           O7   1.969       .  S
Zn5          O10   2.028       .  S
Zn5          O13   2.028       .  S
Zn5          O16   2.015       .  S
Zn6           O7   1.966       .  S
Zn6          O14   2.012       .  S
Zn6          O17   2.022       .  S
Zn6          O18   2.021       .  S
O8           C20   1.272       .  A
O9           C21   1.272       .  A
O10          C22   1.273       .  A
O11          C20   1.272       .  A
O12          C22   1.272       .  A
O13          C21   1.273       .  A
O14          C23   1.272       .  A
O15          C24   1.272       .  A
O16          C23   1.272       .  A
O17          C24   1.272       .  A
O18          C25   1.272       .  A
O19          C25   1.272       .  A
C20          C74   1.432       .  S
C21          C86   1.439       .  S
C22          C79   1.439       .  S
C23          C75   1.432       .  S
C24          C99   1.438       .  S
C25          C95   1.438       .  S
C26          C59   1.526   1_545  S
C26          C66   1.472       .  S
C26          C70   1.472       .  S
C26          C78   1.464       .  S
C27          C60   1.526       .  S
C27          C54   1.472       .  S
C27          C55   1.472       .  S
C27          C71   1.464       .  S
Zn28         O32   1.967       .  S
Zn28         O37   2.021   1_565  S
Zn28         O44   2.019       .  S
Zn28        O139   2.019       .  S
Zn29        O138   1.960   1_554  S
Zn29         O34   2.016   1_455  S
Zn29         O36   2.011       .  S
Zn29         O40   2.017       .  S
Zn30         O32   1.962   1_645  S
Zn30         O35   2.013   1_655  S
Zn30        O356   2.013       .  S
Zn30        O253   2.013       .  S
Zn31         O32   1.960       .  S
Zn31         O39   2.016   1_455  S
Zn31         O42   2.017       .  S
Zn31         O43   2.011       .  S
O32        Zn135   1.960       .  S
O33        Zn134   2.019   1_554  S
O33          C45   1.272       .  A
O34         C258   1.272       .  A
O35          C47   1.271       .  A
O36          C45   1.271       .  A
O37          C47   1.272       .  A
O38        Zn348   2.013   1_554  S
O38          C46   1.271   1_545  A
O39         C260   1.272       .  A
O40         C155   1.272   1_554  A
O41        Zn242   2.013       .  S
O41          C48   1.271   1_545  A
O42          C49   1.272       .  A
O43          C50   1.271       .  A
O44          C50   1.272       .  A
C45          C58   1.433       .  S
C46         O246   1.272       .  A
C46          C67   1.433       .  S
C47         C103   1.435       .  S
C48         O251   1.272       .  A
C48          C63   1.433       .  S
C49         O146   1.272       .  A
C49          C87   1.435       .  S
C50          C51   1.433       .  S
C51          C52   1.204       .  T
C52          C53   1.410       .  S
C53          C54   1.205       .  T
C55          C56   1.205       .  T
C56          C57   1.410       .  S
C57          C58   1.205       .  T
C59          C60   1.319       .  D
C59          H61   1.221       .  S
C60          H62   1.221       .  S
C63          C64   1.204       .  T
C64          C65   1.410       .  S
C65          C66   1.205   1_565  T
C67          C68   1.204       .  T
C68          C69   1.409       .  S
C69          C70   1.205   1_565  T
C71          C72   1.205       .  T
C72          C73   1.409       .  S
C73          C74   1.204       .  T
C75          C76   1.204       .  T
C76          C77   1.409       .  S
C77          C78   1.205       .  T
C79          C80   1.208       .  T
C80          C81   1.415       .  S
C81          C82   1.208       .  T
C83         C108   1.474   1_554  S
C83          C84   1.208       .  T
C84          C85   1.415       .  S
C85          C86   1.208       .  T
C87          C88   1.206       .  T
C88         C301   1.412       .  S
C89          C90   1.206       .  T
C89         C300   1.412       .  S
C91          C92   1.348   1_554  D
C91         H199   1.088   1_554  S
C92         C320   1.517   1_455  S
C92          H94   1.089   1_556  S
H93         C197   1.088       .  S
C95          C96   1.207       .  T
C96          C97   1.414       .  S
C97          C98   1.208       .  T
C98         C107   1.473       .  S
C99         C100   1.207       .  T
C100        C101   1.414       .  S
C101        C102   1.208       .  T
C103        C104   1.205       .  T
C104        C105   1.411       .  S
C105        C106   1.206       .  T
C106        C107   1.469       .  S
C107        C197   1.517       .  S
C107        C208   1.473       .  S
C108        C304   1.517       .  S
C108        C188   1.474       .  S
C108        C196   1.470       .  S
Zn109       O113   1.964       .  S
Zn109       O114   2.014       .  S
Zn109       O118   2.021       .  S
Zn109       O125   2.024       .  S
Zn110       O113   1.964       .  S
Zn110       O115   2.021       .  S
Zn110       O117   2.014       .  S
Zn110       O121   2.024       .  S
Zn111       O113   1.969       .  S
Zn111       O116   2.028       .  S
Zn111       O119   2.028       .  S
Zn111       O122   2.015       .  S
Zn112       O113   1.966       .  S
Zn112       O120   2.012       .  S
Zn112       O123   2.022       .  S
Zn112       O124   2.021       .  S
O114        C126   1.272       .  A
O115        C127   1.272       .  A
O116        C128   1.273       .  A
O117        C126   1.272       .  A
O118        C128   1.272       .  A
O119        C127   1.273       .  A
O120        C129   1.272       .  A
O121        C130   1.272       .  A
O122        C129   1.272       .  A
O123        C130   1.272       .  A
O124        C131   1.272       .  A
O125        C131   1.272       .  A
C126        C180   1.432       .  S
C127        C192   1.439       .  S
C128        C185   1.439       .  S
C129        C181   1.432       .  S
C130        C205   1.438       .  S
C131        C201   1.438       .  S
C132        C165   1.526   1_545  S
C132        C172   1.472       .  S
C132        C176   1.472       .  S
C132        C184   1.464       .  S
C133        C166   1.526       .  S
C133        C160   1.472       .  S
C133        C161   1.472       .  S
C133        C177   1.464       .  S
Zn134       O138   1.967       .  S
Zn134       O143   2.021   1_565  S
Zn134       O150   2.019       .  S
Zn135       O140   2.016   1_455  S
Zn135       O142   2.011       .  S
Zn135       O146   2.017       .  S
Zn136       O138   1.961   1_645  S
Zn136       O141   2.013   1_655  S
Zn136       O250   2.013   1_556  S
Zn136       O359   2.013       .  S
Zn137       O138   1.960       .  S
Zn137       O145   2.016   1_455  S
Zn137       O148   2.017       .  S
Zn137       O149   2.011       .  S
O139        C151   1.272       .  A
O140        C364   1.272       .  A
O141        C153   1.271       .  A
O142        C151   1.271       .  A
O143        C153   1.272       .  A
O144       Zn242   2.013       .  S
O144        C152   1.271   1_545  A
O145        C366   1.272       .  A
O147       Zn348   2.013       .  S
O147        C154   1.271   1_545  A
O148        C155   1.272       .  A
O149        C156   1.271       .  A
O150        C156   1.272       .  A
C151        C164   1.433       .  S
C152        O352   1.272       .  A
C152        C173   1.433       .  S
C153        C209   1.435   1_556  S
C154        O357   1.272       .  A
C154        C169   1.433       .  S
C155        C193   1.435       .  S
C156        C157   1.433       .  S
C157        C158   1.204       .  T
C158        C159   1.410       .  S
C159        C160   1.205       .  T
C161        C162   1.205       .  T
C162        C163   1.410       .  S
C163        C164   1.205       .  T
C165        C166   1.319       .  D
C165        H167   1.221       .  S
C166        H168   1.221       .  S
C169        C170   1.204       .  T
C170        C171   1.410       .  S
C171        C172   1.205   1_565  T
C173        C174   1.204       .  T
C174        C175   1.409       .  S
C175        C176   1.205   1_565  T
C177        C178   1.205       .  T
C178        C179   1.409       .  S
C179        C180   1.204       .  T
C181        C182   1.204       .  T
C182        C183   1.409       .  S
C183        C184   1.205       .  T
C185        C186   1.208       .  T
C186        C187   1.415       .  S
C187        C188   1.208       .  T
C189        C190   1.208       .  T
C190        C191   1.415       .  S
C191        C192   1.208       .  T
C193        C194   1.206       .  T
C194        C407   1.412       .  S
C195        C196   1.206       .  T
C195        C406   1.412       .  S
C197        C198   1.348       .  D
C198        C214   1.517   1_455  S
C198        H200   1.089       .  S
C201        C202   1.207       .  T
C202        C203   1.414       .  S
C203        C204   1.208       .  T
C205        C206   1.207       .  T
C206        C207   1.414       .  S
C207        C208   1.208       .  T
C209        C210   1.205       .  T
C210        C211   1.411       .  S
C211        C212   1.206       .  T
C213        C303   1.517       .  S
C213        C416   1.473   1_554  S
C213        C314   1.473       .  S
C213        C424   1.469       .  S
C214        C294   1.474       .  S
C214        C401   1.474       .  S
C214        C302   1.470   1_655  S
Zn215       O219   1.964       .  S
Zn215       O220   2.014       .  S
Zn215       O224   2.021       .  S
Zn215       O231   2.024       .  S
Zn216       O219   1.964       .  S
Zn216       O221   2.021       .  S
Zn216       O223   2.014       .  S
Zn216       O227   2.024       .  S
Zn217       O219   1.969       .  S
Zn217       O222   2.028       .  S
Zn217       O225   2.028       .  S
Zn217       O228   2.015       .  S
Zn218       O219   1.966       .  S
Zn218       O226   2.012       .  S
Zn218       O229   2.022       .  S
Zn218       O230   2.021       .  S
O220        C232   1.272       .  A
O221        C233   1.272       .  A
O222        C234   1.273       .  A
O223        C232   1.272       .  A
O224        C234   1.272       .  A
O225        C233   1.273       .  A
O226        C235   1.272       .  A
O227        C236   1.272       .  A
O228        C235   1.272       .  A
O229        C236   1.272       .  A
O230        C237   1.272       .  A
O231        C237   1.272       .  A
C232        C286   1.432       .  S
C233        C298   1.439       .  S
C234        C291   1.439       .  S
C235        C287   1.432       .  S
C236        C311   1.438       .  S
C237        C307   1.438       .  S
C238        C271   1.526   1_545  S
C238        C278   1.472       .  S
C238        C282   1.472       .  S
C238        C290   1.464       .  S
C239        C272   1.526       .  S
C239        C266   1.472       .  S
C239        C267   1.472       .  S
C239        C283   1.464       .  S
Zn240       O244   1.967       .  S
Zn240       O351   2.019       .  S
Zn240       O249   2.021   1_565  S
Zn240       O256   2.019       .  S
Zn241       O350   1.960   1_554  S
Zn241       O246   2.016       .  S
Zn241       O248   2.011       .  S
Zn241       O252   2.017       .  S
Zn242       O244   1.962   1_545  S
Zn242       O247   2.013       .  S
Zn243       O244   1.960       .  S
Zn243       O251   2.016       .  S
Zn243       O254   2.017       .  S
Zn243       O255   2.011       .  S
O244       Zn347   1.960       .  S
O245       Zn346   2.019   1_554  S
O245        C257   1.272       .  A
O247        C259   1.271       .  A
O248        C257   1.271       .  A
O249        C259   1.272       .  A
O250        C258   1.271   1_545  A
O252        C367   1.272   1_554  A
O253        C260   1.271   1_545  A
O254        C261   1.272       .  A
O255        C262   1.271       .  A
O256        C262   1.272       .  A
C257        C270   1.433       .  S
C258        C279   1.433       .  S
C259        C315   1.435       .  S
C260        C275   1.433       .  S
C261        O358   1.272       .  A
C261        C299   1.435       .  S
C262        C263   1.433       .  S
C263        C264   1.204       .  T
C264        C265   1.410       .  S
C265        C266   1.205       .  T
C267        C268   1.205       .  T
C268        C269   1.410       .  S
C269        C270   1.205       .  T
C271        C272   1.319       .  D
C271        H273   1.221       .  S
C272        H274   1.221       .  S
C275        C276   1.204       .  T
C276        C277   1.410       .  S
C277        C278   1.205   1_565  T
C279        C280   1.204       .  T
C280        C281   1.409       .  S
C281        C282   1.205   1_565  T
C283        C284   1.205       .  T
C284        C285   1.409       .  S
C285        C286   1.204       .  T
C287        C288   1.204       .  T
C288        C289   1.409       .  S
C289        C290   1.205       .  T
C291        C292   1.208       .  T
C292        C293   1.415       .  S
C293        C294   1.208       .  T
C295        C320   1.474   1_554  S
C295        C296   1.208       .  T
C296        C297   1.415       .  S
C297        C298   1.208       .  T
C299        C300   1.206       .  T
C301        C302   1.206       .  T
C303        C304   1.348   1_554  D
C303        H411   1.088   1_554  S
C304        H306   1.089   1_556  S
H305        C409   1.088       .  S
C307        C308   1.207       .  T
C308        C309   1.414       .  S
C309        C310   1.208       .  T
C310        C319   1.473       .  S
C311        C312   1.207       .  T
C312        C313   1.414       .  S
C313        C314   1.208       .  T
C315        C316   1.205       .  T
C316        C317   1.411       .  S
C317        C318   1.206       .  T
C318        C319   1.469       .  S
C319        C409   1.517       .  S
C319        C420   1.473       .  S
C320        C400   1.474       .  S
C320        C408   1.470   1_655  S
Zn321       O325   1.964       .  S
Zn321       O326   2.014       .  S
Zn321       O330   2.021       .  S
Zn321       O337   2.024       .  S
Zn322       O325   1.964       .  S
Zn322       O327   2.021       .  S
Zn322       O329   2.014       .  S
Zn322       O333   2.024       .  S
Zn323       O325   1.969       .  S
Zn323       O328   2.028       .  S
Zn323       O331   2.028       .  S
Zn323       O334   2.015       .  S
Zn324       O325   1.966       .  S
Zn324       O332   2.012       .  S
Zn324       O335   2.022       .  S
Zn324       O336   2.021       .  S
O326        C338   1.272       .  A
O327        C339   1.272       .  A
O328        C340   1.273       .  A
O329        C338   1.272       .  A
O330        C340   1.272       .  A
O331        C339   1.273       .  A
O332        C341   1.272       .  A
O333        C342   1.272       .  A
O334        C341   1.272       .  A
O335        C342   1.272       .  A
O336        C343   1.272       .  A
O337        C343   1.272       .  A
C338        C392   1.432       .  S
C339        C404   1.439       .  S
C340        C397   1.439       .  S
C341        C393   1.432       .  S
C342        C417   1.438       .  S
C343        C413   1.438       .  S
C344        C377   1.526   1_545  S
C344        C384   1.472       .  S
C344        C388   1.472       .  S
C344        C396   1.464       .  S
C345        C378   1.526       .  S
C345        C372   1.472       .  S
C345        C373   1.472       .  S
C345        C389   1.464       .  S
Zn346       O350   1.967       .  S
Zn346       O355   2.021   1_565  S
Zn346       O362   2.019       .  S
Zn347       O352   2.016       .  S
Zn347       O354   2.011       .  S
Zn347       O358   2.017       .  S
Zn348       O350   1.961   1_545  S
Zn348       O353   2.013       .  S
Zn349       O350   1.960       .  S
Zn349       O357   2.016       .  S
Zn349       O360   2.017       .  S
Zn349       O361   2.011       .  S
O351        C363   1.272       .  A
O353        C365   1.271       .  A
O354        C363   1.271       .  A
O355        C365   1.272       .  A
O356        C364   1.271   1_545  A
O359        C366   1.271   1_545  A
O360        C367   1.272       .  A
O361        C368   1.271       .  A
O362        C368   1.272       .  A
C363        C376   1.433       .  S
C364        C385   1.433       .  S
C365        C421   1.435   1_556  S
C366        C381   1.433       .  S
C367        C405   1.435       .  S
C368        C369   1.433       .  S
C369        C370   1.204       .  T
C370        C371   1.410       .  S
C371        C372   1.205       .  T
C373        C374   1.205       .  T
C374        C375   1.410       .  S
C375        C376   1.205       .  T
C377        C378   1.319       .  D
C377        H379   1.221       .  S
C378        H380   1.221       .  S
C381        C382   1.204       .  T
C382        C383   1.410       .  S
C383        C384   1.205   1_565  T
C385        C386   1.204       .  T
C386        C387   1.409       .  S
C387        C388   1.205   1_565  T
C389        C390   1.205       .  T
C390        C391   1.409       .  S
C391        C392   1.204       .  T
C393        C394   1.204       .  T
C394        C395   1.409       .  S
C395        C396   1.205       .  T
C397        C398   1.208       .  T
C398        C399   1.415       .  S
C399        C400   1.208       .  T
C401        C402   1.208       .  T
C402        C403   1.415       .  S
C403        C404   1.208       .  T
C405        C406   1.206       .  T
C407        C408   1.206       .  T
C409        C410   1.348       .  D
C410        H412   1.089       .  S
C413        C414   1.207       .  T
C414        C415   1.414       .  S
C415        C416   1.208       .  T
C417        C418   1.207       .  T
C418        C419   1.414       .  S
C419        C420   1.208       .  T
C421        C422   1.205       .  T
C422        C423   1.411       .  S
C423        C424   1.206       .  T
