geometry optimzed in LAMMPS
_audit_creation_date              2020-11-30 
_audit_creation_method            'lammps2cif' 
_symmetry_space_group_name_H-M    'P1' 
_symmetry_Int_Tables_number       1 
_symmetry_cell_setting            triclinic 
loop_ 
_symmetry_equiv_pos_as_xyz 
  x,y,z 
_cell_length_a                    27.95869495 
_cell_length_b                    27.958606576599397 
_cell_length_c                    35.49596470345876 
_cell_angle_alpha                 89.99866546780083 
_cell_angle_beta                  90.0008417303317 
_cell_angle_gamma                 90.0012448927699 
loop_ 
_atom_site_label 
_atom_site_type_symbol 
_atom_site_fract_x 
_atom_site_fract_y 
_atom_site_fract_z 
_atom_site_charge 
C1          C  0.82039773  0.38192829  0.50576140     0.06100
C2          C  0.85589999  0.41729043  0.00639588    -0.10100
C3          C  0.90429055  0.40427325  0.00748871     0.03600
C4          C  0.91715903  0.35580709  0.00796773    -0.08600
C5          C  0.88167585  0.32039596  0.00734219     0.06100
C6          C  0.83332730  0.33351665  0.50625687    -0.08000
H7          H  0.84592177  0.45477276  0.00594166     0.11700
H8          H  0.95459832  0.34570339  0.00870230     0.09200
H9          H  0.80585177  0.30613621  0.50568489     0.09000
C10         C  0.82060051  0.38119065  0.24510978     0.06100
C11         C  0.83386523  0.33290110  0.24395092    -0.10100
C12         C  0.88227331  0.32013827  0.24248058     0.03600
C13         C  0.91752529  0.35576905  0.24211230    -0.08600
C14         C  0.90438010  0.40413660  0.24326540     0.06100
C15         C  0.85588404  0.41682305  0.24476859    -0.08000
H16         H  0.80658646  0.30531615  0.24430389     0.11700
H17         H  0.95501708  0.34590357  0.24106633     0.09200
H18         H  0.84566325  0.45422171  0.24571275     0.09000
C19         C  0.59153435  0.88171364  0.99268533     0.06100
C20         C  0.55612618  0.91719803  0.99205165    -0.10100
C21         C  0.50765917  0.90433099  0.99252533     0.03600
C22         C  0.49463827  0.85594088  0.99362115    -0.08600
C23         C  0.52999743  0.82043760  0.99426366     0.06100
C24         C  0.57840990  0.83336561  0.99377383    -0.08000
H25         H  0.56623276  0.95463699  0.99131391     0.11700
H26         H  0.45715523  0.84596380  0.99407035     0.09200
H27         H  0.60578808  0.80588919  0.99435127     0.09000
C28         C  0.59180117  0.88228409  0.25749354     0.06100
C29         C  0.57903519  0.83387642  0.25602049    -0.10100
C30         C  0.53074485  0.82061266  0.25486772     0.03600
C31         C  0.49511465  0.85589653  0.25521756    -0.08600
C32         C  0.50780427  0.90439225  0.25672352     0.06100
C33         C  0.55617274  0.91753674  0.25787049    -0.08000
H34         H  0.60661832  0.80659715  0.25566158     0.11700
H35         H  0.45771525  0.84567626  0.25427868     0.09200
H36         H  0.56604066  0.95502829  0.25891921     0.09000
Zn37       Zn  0.92520208  0.90768356  0.46802640     1.49700
Zn38       Zn  0.98670963  0.00428134  0.46803017     1.49400
Zn39       Zn  0.90766475  0.98672477  0.03198220     1.49100
Zn40       Zn  0.00425988  0.92521794  0.03197255     1.49500
O41         O  0.95595923  0.95597723  0.50000283    -1.81200
O42         O  0.93806443  0.92040776  0.41295112    -0.71800
O43         O  0.96293686  0.07061391  0.48028106    -0.71600
O44         O  0.84132913  0.96295275  0.01973818    -0.71200
O45         O  0.97385187  0.99156389  0.41295245    -0.71800
O46         O  0.85349775  0.90811869  0.47527652    -0.71400
O47         O  0.90809527  0.05843049  0.02473556    -0.72000
O48         O  0.99154868  0.93807247  0.08705098    -0.71400
O49         O  0.05841456  0.00384794  0.47527853    -0.72200
O50         O  0.92039436  0.97386011  0.08705694    -0.71600
O51         O  0.07059314  0.94898716  0.01972062    -0.72000
O52         O  0.00382103  0.85351386  0.02471969    -0.71900
O53         O  0.94896817  0.84134694  0.48027020    -0.71700
C54         C  0.95595978  0.95598581  0.39559124     0.80100
C55         C  0.93180316  0.08620244  0.50334202     0.80600
C56         C  0.82573287  0.93182403  0.49667569     0.79500
C57         C  0.95597378  0.95596496  0.10441452     0.79900
C58         C  0.08618421  0.98012862  0.49666575     0.81000
C59         C  0.98010479  0.82574968  0.50332608     0.80100
Zn60       Zn  0.91078332  0.99100971  0.28200786     1.49700
Zn61       Zn  0.92094151  0.91077597  0.21799333     1.49400
Zn62       Zn  0.99101503  0.00115650  0.21798984     1.49100
Zn63       Zn  0.00116059  0.92093709  0.28202062     1.49500
O64         O  0.95597533  0.95596983  0.25000282    -1.81200
O65         O  0.84349746  0.96613524  0.27504181    -0.71800
O66         O  0.92829606  0.92733892  0.16292546    -0.71600
O67         O  0.96614476  0.06844486  0.22494793    -0.71200
O68         O  0.85062969  0.91048794  0.23052315    -0.71800
O69         O  0.91049542  0.06131890  0.26946635    -0.71400
O70         O  0.98366240  0.98458726  0.16292314    -0.72000
O71         O  0.06844908  0.94580532  0.27505612    -0.71400
O72         O  0.94581103  0.84348975  0.22496561    -0.72200
O73         O  0.06132588  0.00144236  0.23052615    -0.71600
O74         O  0.00144544  0.85062337  0.26949586    -0.72000
O75         O  0.98458961  0.92829864  0.33708583    -0.71900
O76         O  0.92734428  0.98366552  0.33707715    -0.71700
C77         C  0.82544708  0.93434310  0.25370185     0.80100
C78         C  0.95597853  0.95596281  0.14556137     0.80600
C79         C  0.93435161  0.08649818  0.24628444     0.79500
C80         C  0.08650419  0.97759077  0.25371162     0.79900
C81         C  0.97759511  0.82543968  0.24631352     0.81000
C82         C  0.95596525  0.95598392  0.35444442     0.80100
C83         C  0.03019792  0.59154907  0.00730873     0.06100
C84         C  0.07854521  0.57842529  0.00621914    -0.10100
C85         C  0.09147185  0.53001296  0.00572964     0.03600
C86         C  0.05596769  0.49465306  0.00637346    -0.08600
C87         C  0.00757809  0.50767333  0.00747036     0.06100
C88         C  0.99471260  0.55614036  0.00794372    -0.08000
H89         H  0.10602220  0.60580408  0.50564088     0.11700
H90         H  0.06594366  0.45717007  0.00592470     0.09200
H91         H  0.95727416  0.56624653  0.00868254     0.09000
C92         C  0.02963148  0.59178933  0.24253489     0.06100
C93         C  0.07803834  0.57902260  0.24400711    -0.10100
C94         C  0.09129979  0.53073178  0.24515282     0.03600
C95         C  0.05601419  0.49510172  0.24479735    -0.08600
C96         C  0.00751910  0.50779205  0.24329250     0.06100
C97         C  0.99437710  0.55616113  0.24215243    -0.08000
H98         H  0.10531893  0.60660555  0.24436937     0.11700
H99         H  0.06623267  0.45770190  0.24573000     0.09200
H100        H  0.95688620  0.56602963  0.24110356     0.09000
C101        C  0.38191557  0.09150648  0.49424052     0.06100
C102        C  0.41727744  0.05600574  0.49360490    -0.10100
C103        C  0.40425996  0.00761452  0.99251290     0.03600
C104        C  0.35579378  0.99474420  0.49203574    -0.08600
C105        C  0.32038331  0.03022637  0.49266245     0.06100
C106        C  0.33350429  0.07857514  0.49374719    -0.08000
H107        H  0.45475971  0.06598553  0.49405739     0.11700
H108        H  0.34568971  0.95730445  0.99130169     0.09200
H109        H  0.30612412  0.10604972  0.49432003     0.09000
C110        C  0.38120809  0.09130720  0.25487323     0.06100
C111        C  0.41683906  0.05602398  0.25522076    -0.10100
C112        C  0.40415039  0.00752780  0.25672586     0.03600
C113        C  0.35578219  0.99438235  0.25787423    -0.08600
C114        C  0.32015318  0.02963448  0.25749966     0.06100
C115        C  0.33291821  0.07804239  0.25602734    -0.08000
H116        H  0.45423815  0.06624506  0.25428097     0.11700
H117        H  0.34591497  0.95689056  0.25892247     0.09200
H118        H  0.30533454  0.10532122  0.25567038     0.09000
Zn119      Zn  0.48879075  0.40890906  0.03184258     1.49700
Zn120      Zn  0.40887249  0.42311969  0.46815183     1.49400
Zn121      Zn  0.42307717  0.50303797  0.03184189     1.49100
Zn122      Zn  0.50300395  0.48883420  0.46815686     1.49500
O123        O  0.45593600  0.45597571  0.49999824    -1.81200
O124        O  0.46508962  0.34189803  0.02166957    -0.71800
O125        O  0.34186030  0.44682053  0.47831856    -0.71600
O126        O  0.43360685  0.48889923  0.08689245    -0.71200
O127        O  0.40958949  0.35197750  0.47741591    -0.71800
O128        O  0.47825981  0.42304342  0.08689186    -0.71400
O129        O  0.35193524  0.50231852  0.02257343    -0.72000
O130        O  0.50228496  0.55997585  0.47742317    -0.71400
O131        O  0.42301533  0.43364978  0.41310318    -0.74200
O132        O  0.44678057  0.57005057  0.02167274    -0.71600
O133        O  0.48887283  0.47830299  0.41310565    -0.72000
O134        O  0.57001506  0.46513317  0.47833166    -0.71900
O135        O  0.55993259  0.40962708  0.02258062    -0.71700
C136        C  0.43365972  0.32523419  0.49933115     0.80100
C137        C  0.32519414  0.47824946  0.50065551     0.80600
C138        C  0.45593400  0.45597071  0.10434573     0.79500
C139        C  0.47821356  0.58671686  0.49933799     0.79900
C140        C  0.45594603  0.45597502  0.39565082     0.81000
C141        C  0.58667725  0.43369962  0.50066795     0.80100
Zn142      Zn  0.48809138  0.40835030  0.21818127     1.49700
Zn143      Zn  0.50357240  0.48810678  0.28181232     1.49400
Zn144      Zn  0.42380460  0.50358544  0.21818578     1.49100
Zn145      Zn  0.40833493  0.42381913  0.28181364     1.49500
O146        O  0.45595088  0.45596560  0.24999827    -1.81200
O147        O  0.55926797  0.40743554  0.22773686    -0.71800
O148        O  0.50449394  0.55928153  0.27224869    -0.71600
O149        O  0.43381654  0.48903930  0.16313936    -0.71200
O150        O  0.57006532  0.46284925  0.27194786    -0.71800
O151        O  0.47806324  0.42289950  0.16313688    -0.71400
O152        O  0.44906412  0.57007850  0.22804875    -0.72000
O153        O  0.34183965  0.44906882  0.27194880    -0.71400
O154        O  0.48902255  0.47809220  0.33685851    -0.72200
O155        O  0.35263011  0.50450268  0.22775064    -0.71600
O156        O  0.42288127  0.43384501  0.33685830    -0.72000
O157        O  0.40742300  0.35264274  0.27225687    -0.71900
O158        O  0.46284120  0.34185468  0.22804831    -0.71700
C159        C  0.58630629  0.43103592  0.24975871     0.80100
C160        C  0.48088700  0.58631941  0.25023076     0.80600
C161        C  0.45593761  0.45596966  0.14568667     0.79500
C162        C  0.32559516  0.48089137  0.24976808     0.79900
C163        C  0.45595034  0.45597072  0.35430987     0.81000
C164        C  0.43102779  0.32560857  0.25023615     0.80100
C165        C  0.39394669  0.14119509  0.25328944    -0.15600
C166        C  0.40335590  0.18327172  0.25213617     0.08500
C167        C  0.41338750  0.23277336  0.25109590     0.10400
C168        C  0.42152736  0.27513225  0.25052572    -0.16400
C169        C  0.39519070  0.14124372  0.49560015    -0.15600
C170        C  0.40548055  0.18309954  0.49677034     0.08500
C171        C  0.41647368  0.23236653  0.49802315     0.10400
C172        C  0.42487571  0.27465411  0.49883390    -0.16400
C173        C  0.14118668  0.51799090  0.24673375    -0.15600
C174        C  0.18326218  0.50857792  0.24788330     0.08500
C175        C  0.23276236  0.49854052  0.24891817     0.10400
C176        C  0.27512000  0.49039582  0.24948358    -0.16400
C177        C  0.27461437  0.48703496  0.50114716    -0.15600
C178        C  0.23232772  0.49544076  0.00195297     0.08500
C179        C  0.18306211  0.50643972  0.00320100     0.10400
C180        C  0.14120768  0.51673430  0.50436908    -0.16400
C181        C  0.27041082  0.01630526  0.25811064    -0.15600
C182        C  0.22848150  0.00622107  0.25799667     0.08500
C183        C  0.17915734  0.99544350  0.25713053     0.10400
C184        C  0.13691160  0.98694160  0.25582889    -0.16400
C185        C  0.98694580  0.77503200  0.24420375    -0.15600
C186        C  0.99544700  0.73278614  0.24290685     0.08500
C187        C  0.00622320  0.68346186  0.24204341     0.10400
C188        C  0.01630558  0.64153238  0.24192869    -0.16400
C189        C  0.13672651  0.98898731  0.49488461    -0.15600
C190        C  0.17908622  0.99702455  0.49376253     0.08500
C191        C  0.22852558  0.00737843  0.49290717     0.10400
C192        C  0.27053152  0.01719540  0.49257850    -0.16400
C193        C  0.98896241  0.77520680  0.50510045    -0.15600
C194        C  0.99700026  0.73284695  0.00621675     0.08500
C195        C  0.00735495  0.68340770  0.00706658     0.10400
C196        C  0.01717108  0.64140176  0.50739257    -0.16400
C197        C  0.47124172  0.94070862  0.25688312    -0.10300
C198        C  0.44071349  0.97121193  0.25688373    -0.11900
C199        C  0.51800409  0.77072546  0.25328237    -0.15600
C200        C  0.50858849  0.72865036  0.25212773     0.08500
C201        C  0.49854607  0.67915101  0.25108658     0.10400
C202        C  0.49039660  0.63679400  0.25051710    -0.16400
C203        C  0.64154368  0.89561312  0.25810218    -0.15600
C204        C  0.68347241  0.90569976  0.25798625     0.08500
C205        C  0.73279554  0.91648186  0.25711864     0.10400
C206        C  0.77504041  0.92498795  0.25581710    -0.16400
C207        C  0.47124993  0.94075956  0.99219914    -0.10300
C208        C  0.44067137  0.97118805  0.99219539    -0.11900
C209        C  0.51671715  0.77070147  0.49562390    -0.15600
C210        C  0.50641845  0.72884752  0.49679209     0.08500
C211        C  0.49541303  0.67958274  0.49804024     0.10400
C212        C  0.48700233  0.63729652  0.49884603    -0.16400
C213        C  0.64138701  0.89474238  0.99260219    -0.15600
C214        C  0.68339260  0.90456171  0.49292971     0.08500
C215        C  0.73283122  0.91492092  0.49378177     0.10400
C216        C  0.77519043  0.92296266  0.49489988    -0.16400
C217        C  0.94069642  0.44070108  0.24311630    -0.10300
C218        C  0.97120090  0.47122958  0.24312462    -0.11900
C219        C  0.92499520  0.13690409  0.24416108    -0.15600
C220        C  0.91648446  0.17914771  0.24285466     0.08500
C221        C  0.90569543  0.22846915  0.24198424     0.10400
C222        C  0.89560418  0.27039658  0.24186857    -0.16400
C223        C  0.63678128  0.42152977  0.24946849    -0.15600
C224        C  0.67913836  0.41338248  0.24889553     0.08500
C225        C  0.72863777  0.40334209  0.24785101     0.10400
C226        C  0.77071290  0.39392839  0.24669485    -0.16400
C227        C  0.97114831  0.47126363  0.00779862    -0.10300
C228        C  0.94071845  0.44068500  0.00780427    -0.11900
C229        C  0.89470661  0.27054409  0.50742735    -0.15600
C230        C  0.90452917  0.22853949  0.00709908     0.08500
C231        C  0.91489311  0.17910211  0.00624409     0.10400
C232        C  0.92293860  0.13674395  0.50512229    -0.16400
C233        C  0.63725657  0.42491218  0.50116493    -0.15600
C234        C  0.67954254  0.41650314  0.00197591     0.08500
C235        C  0.72880715  0.40550044  0.00322950     0.10400
C236        C  0.77066115  0.39520466  0.50440056    -0.16400
C237        C  0.82039777  0.38192834  0.00576149     0.06100
C238        C  0.85589998  0.41729036  0.50639568    -0.10100
C239        C  0.90429052  0.40427318  0.50748857     0.03600
C240        C  0.91715898  0.35580701  0.50796774    -0.08600
C241        C  0.88167576  0.32039590  0.50734227     0.06100
C242        C  0.83332736  0.33351671  0.00625683    -0.08000
H243        H  0.84592178  0.45477271  0.50594135     0.11700
H244        H  0.95459824  0.34570329  0.50870235     0.09200
H245        H  0.80585185  0.30613628  0.00568478     0.09000
C246        C  0.82060053  0.38119050  0.74510971     0.06100
C247        C  0.83386523  0.33290095  0.74395085    -0.10100
C248        C  0.88227331  0.32013811  0.74248050     0.03600
C249        C  0.91752531  0.35576888  0.74211223    -0.08600
C250        C  0.90438013  0.40413644  0.74326535     0.06100
C251        C  0.85588407  0.41682289  0.74476852    -0.08000
H252        H  0.80658646  0.30531600  0.74430383     0.11700
H253        H  0.95501708  0.34590339  0.74106628     0.09200
H254        H  0.84566329  0.45422156  0.74571270     0.09000
C255        C  0.59153434  0.88171370  0.49268532     0.06100
C256        C  0.55612616  0.91719809  0.49205158    -0.10100
C257        C  0.50765914  0.90433104  0.49252527     0.03600
C258        C  0.49463826  0.85594094  0.49362114    -0.08600
C259        C  0.52999741  0.82043766  0.49426368     0.06100
C260        C  0.57840988  0.83336567  0.49377385    -0.08000
H261        H  0.56623274  0.95463704  0.49131379     0.11700
H262        H  0.45715520  0.84596385  0.49407036     0.09200
H263        H  0.60578806  0.80588925  0.49435131     0.09000
C264        C  0.59180119  0.88228408  0.75749346     0.06100
C265        C  0.57903523  0.83387641  0.75602041    -0.10100
C266        C  0.53074489  0.82061265  0.75486768     0.03600
C267        C  0.49511468  0.85589650  0.75521754    -0.08600
C268        C  0.50780427  0.90439222  0.75672351     0.06100
C269        C  0.55617275  0.91753672  0.75787045    -0.08000
H270        H  0.60661837  0.80659714  0.75566151     0.11700
H271        H  0.45771529  0.84567621  0.75427868     0.09200
H272        H  0.56604066  0.95502827  0.75891915     0.09000
Zn273      Zn  0.92520214  0.90768348  0.96802637     1.49700
Zn274      Zn  0.98670968  0.00428126  0.96803012     1.49400
Zn275      Zn  0.90766475  0.98672483  0.53198226     1.49100
Zn276      Zn  0.00425985  0.92521801  0.53197252     1.49500
O277        O  0.95595928  0.95597718  0.00000281    -1.81200
O278        O  0.93806448  0.92040767  0.91295111    -0.71800
O279        O  0.96293696  0.07061391  0.98028104    -0.71600
O280        O  0.84132914  0.96295283  0.51973827    -0.71200
O281        O  0.97385188  0.99156381  0.91295240    -0.71800
O282        O  0.85349778  0.90811857  0.97527646    -0.71400
O283        O  0.90809528  0.05843058  0.52473569    -0.72000
O284        O  0.99154870  0.93807249  0.58705096    -0.71400
O285        O  0.05841460  0.00384788  0.97527848    -0.72200
O286        O  0.92039432  0.97386002  0.58705700    -0.71600
O287        O  0.07059313  0.94898708  0.51972054    -0.72000
O288        O  0.00382098  0.85351393  0.52471963    -0.71900
O289        O  0.94896826  0.84134688  0.98027022    -0.71700
C290        C  0.95595980  0.95598571  0.89559121     0.80100
C291        C  0.93180319  0.08620240  0.00334197     0.80600
C292        C  0.82573288  0.93182392  0.99667561     0.79500
C293        C  0.95597380  0.95596489  0.60441454     0.79900
C294        C  0.08618424  0.98012864  0.99666578     0.81000
C295        C  0.98010485  0.82574961  0.00332613     0.80100
Zn296      Zn  0.91078339  0.99100958  0.78200783     1.49700
Zn297      Zn  0.92094154  0.91077586  0.71799333     1.49400
Zn298      Zn  0.99101510  0.00115642  0.71798984     1.49100
Zn299      Zn  0.00116064  0.92093694  0.78202060     1.49500
O300        O  0.95597539  0.95596972  0.75000280    -1.81200
O301        O  0.84349751  0.96613518  0.77504180    -0.71800
O302        O  0.92829611  0.92733884  0.66292548    -0.71600
O303        O  0.96614479  0.06844476  0.72494791    -0.71200
O304        O  0.85062973  0.91048783  0.73052318    -0.71800
O305        O  0.91049547  0.06131876  0.76946633    -0.71400
O306        O  0.98366250  0.98458714  0.66292314    -0.72000
O307        O  0.06844914  0.94580516  0.77505615    -0.71400
O308        O  0.94581103  0.84348963  0.72496559    -0.72200
O309        O  0.06132592  0.00144230  0.73052626    -0.71600
O310        O  0.00144549  0.85062322  0.76949581    -0.72000
O311        O  0.98458962  0.92829849  0.83708580    -0.71900
O312        O  0.92734432  0.98366540  0.83707711    -0.71700
C313        C  0.82544712  0.93434303  0.75370185     0.80100
C314        C  0.95597860  0.95596271  0.64556138     0.80600
C315        C  0.93435164  0.08649805  0.74628442     0.79500
C316        C  0.08650423  0.97759066  0.75371170     0.79900
C317        C  0.97759514  0.82543954  0.74631347     0.81000
C318        C  0.95596526  0.95598378  0.85444439     0.80100
C319        C  0.03019786  0.59154910  0.50730865     0.06100
C320        C  0.07854516  0.57842534  0.50621908    -0.10100
C321        C  0.09147182  0.53001302  0.50572960     0.03600
C322        C  0.05596768  0.49465310  0.50637339    -0.08600
C323        C  0.00757806  0.50767333  0.50747024     0.06100
C324        C  0.99471255  0.55614036  0.50794360    -0.08000
H325        H  0.10602227  0.60580401  0.00564094     0.11700
H326        H  0.06594368  0.45717011  0.50592465     0.09200
H327        H  0.95727411  0.56624652  0.50868240     0.09000
C328        C  0.02963151  0.59178918  0.74253505     0.06100
C329        C  0.07803837  0.57902245  0.74400724    -0.10100
C330        C  0.09129984  0.53073163  0.74515289     0.03600
C331        C  0.05601425  0.49510157  0.74479743    -0.08600
C332        C  0.00751915  0.50779188  0.74329263     0.06100
C333        C  0.99437713  0.55616097  0.74215260    -0.08000
H334        H  0.10531896  0.60660540  0.74436950     0.11700
H335        H  0.06623274  0.45770174  0.74573003     0.09200
H336        H  0.95688623  0.56602945  0.74110372     0.09000
C337        C  0.38191559  0.09150644  0.99424052     0.06100
C338        C  0.41727747  0.05600569  0.99360500    -0.10100
C339        C  0.40425993  0.00761456  0.49251277     0.03600
C340        C  0.35579382  0.99474414  0.99203588    -0.08600
C341        C  0.32038334  0.03022631  0.99266251     0.06100
C342        C  0.33350432  0.07857509  0.99374715    -0.08000
H343        H  0.45475973  0.06598548  0.99405754     0.11700
H344        H  0.34568967  0.95730450  0.49130150     0.09200
H345        H  0.30612415  0.10604968  0.99431988     0.09000
C346        C  0.38120812  0.09130721  0.75487322     0.06100
C347        C  0.41683908  0.05602398  0.75522079    -0.10100
C348        C  0.40415040  0.00752780  0.75672596     0.03600
C349        C  0.35578221  0.99438236  0.75787439    -0.08600
C350        C  0.32015320  0.02963448  0.75749979     0.06100
C351        C  0.33291824  0.07804240  0.75602735    -0.08000
H352        H  0.45423818  0.06624506  0.75428100     0.11700
H353        H  0.34591497  0.95689055  0.75892269     0.09200
H354        H  0.30533457  0.10532122  0.75567032     0.09000
Zn355      Zn  0.48879068  0.40890913  0.53184255     1.49700
Zn356      Zn  0.40887255  0.42311965  0.96815183     1.49400
Zn357      Zn  0.42307709  0.50303812  0.53184184     1.49100
Zn358      Zn  0.50300399  0.48883412  0.96815688     1.49500
O359        O  0.45593602  0.45597559  0.99999827    -1.81200
O360        O  0.46508953  0.34189814  0.52166960    -0.71800
O361        O  0.34186039  0.44682057  0.97831860    -0.71600
O362        O  0.43360679  0.48889934  0.58689241    -0.71200
O363        O  0.40958956  0.35197743  0.97741589    -0.71800
O364        O  0.47825970  0.42304349  0.58689181    -0.71400
O365        O  0.35193515  0.50231860  0.52257331    -0.72000
O366        O  0.50228494  0.55997577  0.97742316    -0.71400
O367        O  0.42301535  0.43364982  0.91310315    -0.74200
O368        O  0.44678053  0.57005073  0.52167271    -0.71600
O369        O  0.48887296  0.47830286  0.91310568    -0.72000
O370        O  0.57001513  0.46513326  0.97833171    -0.71900
O371        O  0.55993252  0.40962703  0.52258060    -0.71700
C372        C  0.43365980  0.32523410  0.99933111     0.80100
C373        C  0.32519422  0.47824944  0.00065559     0.80600
C374        C  0.45593392  0.45597079  0.60434569     0.79500
C375        C  0.47821356  0.58671674  0.99933801     0.79900
C376        C  0.45594613  0.45597500  0.89565083     0.81000
C377        C  0.58667733  0.43369972  0.00066801     0.80100
Zn378      Zn  0.48809141  0.40835033  0.71818123     1.49700
Zn379      Zn  0.50357252  0.48810676  0.78181232     1.49400
Zn380      Zn  0.42380466  0.50358549  0.71818580     1.49100
Zn381      Zn  0.40833506  0.42381912  0.78181363     1.49500
O382        O  0.45595098  0.45596565  0.74999827    -1.81200
O383        O  0.55926802  0.40743555  0.72773675    -0.71800
O384        O  0.50449399  0.55928152  0.77224873    -0.71600
O385        O  0.43381641  0.48903930  0.66313934    -0.71200
O386        O  0.57006542  0.46284922  0.77194780    -0.71800
O387        O  0.47806322  0.42289958  0.66313683    -0.71400
O388        O  0.44906417  0.57007850  0.72804879    -0.72000
O389        O  0.34183974  0.44906878  0.77194882    -0.71400
O390        O  0.48902280  0.47809213  0.83685856    -0.72200
O391        O  0.35263020  0.50450272  0.72775073    -0.71600
O392        O  0.42288142  0.43384508  0.83685827    -0.72000
O393        O  0.40742307  0.35264276  0.77225689    -0.71900
O394        O  0.46284121  0.34185474  0.72804828    -0.71700
C395        C  0.58630636  0.43103592  0.74975860     0.80100
C396        C  0.48088704  0.58631941  0.75023081     0.80600
C397        C  0.45593753  0.45596971  0.64568663     0.79500
C398        C  0.32559525  0.48089135  0.74976813     0.79900
C399        C  0.45595050  0.45597072  0.85430988     0.81000
C400        C  0.43102783  0.32560861  0.75023613     0.80100
C401        C  0.39394672  0.14119510  0.75328938    -0.15600
C402        C  0.40335595  0.18327174  0.75213609     0.08500
C403        C  0.41338757  0.23277339  0.75109584     0.10400
C404        C  0.42152741  0.27513228  0.75052569    -0.16400
C405        C  0.39519072  0.14124368  0.99560009    -0.15600
C406        C  0.40548058  0.18309949  0.99677026     0.08500
C407        C  0.41647375  0.23236646  0.99802310     0.10400
C408        C  0.42487579  0.27465403  0.99883384    -0.16400
C409        C  0.14118674  0.51799076  0.74673380    -0.15600
C410        C  0.18326225  0.50857780  0.74788334     0.08500
C411        C  0.23276244  0.49854045  0.74891826     0.10400
C412        C  0.27512009  0.49039579  0.74948365    -0.16400
C413        C  0.27461445  0.48703497  0.00114724    -0.15600
C414        C  0.23232765  0.49544072  0.50195290     0.08500
C415        C  0.18306207  0.50643977  0.50320094     0.10400
C416        C  0.14120770  0.51673423  0.00436914    -0.16400
C417        C  0.27041084  0.01630527  0.75811082    -0.15600
C418        C  0.22848154  0.00622099  0.75799683     0.08500
C419        C  0.17915738  0.99544338  0.75713066     0.10400
C420        C  0.13691164  0.98694150  0.75582899    -0.16400
C421        C  0.98694584  0.77503187  0.74420367    -0.15600
C422        C  0.99544704  0.73278600  0.74290679     0.08500
C423        C  0.00622322  0.68346171  0.74204345     0.10400
C424        C  0.01630560  0.64153222  0.74192882    -0.16400
C425        C  0.13672655  0.98898731  0.99488463    -0.15600
C426        C  0.17908626  0.99702453  0.99376257     0.08500
C427        C  0.22852563  0.00737836  0.99290720     0.10400
C428        C  0.27053157  0.01719533  0.99257852    -0.16400
C429        C  0.98896244  0.77520673  0.00510050    -0.15600
C430        C  0.99700030  0.73284703  0.50621670     0.08500
C431        C  0.00735497  0.68340777  0.50706652     0.10400
C432        C  0.01717114  0.64140172  0.00739264    -0.16400
C433        C  0.47124172  0.94070859  0.75688314    -0.10300
C434        C  0.44071349  0.97121192  0.75688381    -0.11900
C435        C  0.51800414  0.77072545  0.75328238    -0.15600
C436        C  0.50858853  0.72865036  0.75212778     0.08500
C437        C  0.49854608  0.67915101  0.75108670     0.10400
C438        C  0.49039660  0.63679400  0.75051718    -0.16400
C439        C  0.64154369  0.89561313  0.75810210    -0.15600
C440        C  0.68347242  0.90569979  0.75798618     0.08500
C441        C  0.73279554  0.91648193  0.75711859     0.10400
C442        C  0.77504043  0.92498795  0.75581707    -0.16400
C443        C  0.47124991  0.94075960  0.49219908    -0.10300
C444        C  0.44067134  0.97118809  0.49219526    -0.11900
C445        C  0.51671717  0.77070139  0.99562390    -0.15600
C446        C  0.50641849  0.72884742  0.99679211     0.08500
C447        C  0.49541305  0.67958264  0.99804027     0.10400
C448        C  0.48700232  0.63729641  0.99884608    -0.16400
C449        C  0.64138700  0.89474245  0.49260224    -0.15600
C450        C  0.68339262  0.90456161  0.99292964     0.08500
C451        C  0.73283124  0.91492081  0.99378168     0.10400
C452        C  0.77519044  0.92296256  0.99489977    -0.16400
C453        C  0.94069647  0.44070089  0.74311632    -0.10300
C454        C  0.97120096  0.47122940  0.74312468    -0.11900
C455        C  0.92499523  0.13690396  0.74416108    -0.15600
C456        C  0.91648450  0.17914758  0.74285467     0.08500
C457        C  0.90569544  0.22846900  0.74198419     0.10400
C458        C  0.89560418  0.27039643  0.74186849    -0.16400
C459        C  0.63678135  0.42152982  0.74946832    -0.15600
C460        C  0.67913844  0.41338256  0.74889535     0.08500
C461        C  0.72863783  0.40334209  0.74785092     0.10400
C462        C  0.77071293  0.39392828  0.74669480    -0.16400
C463        C  0.97114832  0.47126356  0.50779846    -0.10300
C464        C  0.94071848  0.44068490  0.50780407    -0.11900
C465        C  0.89470668  0.27054412  0.00742725    -0.15600
C466        C  0.90452912  0.22853949  0.50709912     0.08500
C467        C  0.91489306  0.17910212  0.50624401     0.10400
C468        C  0.92293863  0.13674392  0.00512235    -0.16400
C469        C  0.63725663  0.42491228  0.00116501    -0.15600
C470        C  0.67954250  0.41650310  0.50197584     0.08500
C471        C  0.72880712  0.40550042  0.50322943     0.10400
C472        C  0.77066118  0.39520469  0.00440066    -0.16400
loop_ 
_geom_bond_atom_site_label_1 
_geom_bond_atom_site_label_2 
_geom_bond_distance 
_geom_bond_site_symmetry_2 
_ccdc_geom_bond_type 
C1            C6   1.401       .  A
C1          C238   1.401       .  A
C1          C236   1.440       .  S
C2            C3   1.402       .  A
C2          C237   1.401       .  A
C2            H7   1.085       .  S
C3            C4   1.402       .  A
C3          C228   1.440       .  S
C4            C5   1.402       .  A
C4            H8   1.085       .  S
C5          C242   1.401       .  A
C5          C465   1.441       .  S
C6          C241   1.401       .  A
C6            H9   1.085       .  S
C10          C11   1.401       .  A
C10          C15   1.402       .  A
C10         C226   1.441       .  S
C11          C12   1.401       .  A
C11          H16   1.085       .  S
C12          C13   1.401       .  A
C12         C222   1.440       .  S
C13          C14   1.402       .  A
C13          H17   1.085       .  S
C14          C15   1.403       .  A
C14         C217   1.441       .  S
C15          H18   1.084       .  S
C19          C20   1.402       .  A
C19          C24   1.401       .  A
C19         C213   1.441       .  S
C20          C21   1.402       .  A
C20          H25   1.085       .  S
C21          C22   1.402       .  A
C21         C207   1.440       .  S
C22          C23   1.401       .  A
C22          H26   1.085       .  S
C23          C24   1.401       .  A
C23         C445   1.440       .  S
C24          H27   1.085       .  S
C28          C29   1.401       .  A
C28          C33   1.401       .  A
C28         C203   1.440       .  S
C29          C30   1.401       .  A
C29          H34   1.085       .  S
C30          C31   1.402       .  A
C30         C199   1.441       .  S
C31          C32   1.403       .  A
C31          H35   1.084       .  S
C32          C33   1.402       .  A
C32         C197   1.441       .  S
C33          H36   1.085       .  S
Zn37         O41   1.962       .  S
Zn37         O42   2.019       .  S
Zn37         O46   2.021       .  S
Zn37         O53   2.017       .  S
Zn38         O41   1.962   1_545  S
Zn38         O43   2.018       .  S
Zn38         O45   2.019   1_545  S
Zn38         O49   2.021   1_655  S
Zn39        O277   1.962       .  S
Zn39         O44   2.018       .  S
Zn39         O47   2.021   1_565  S
Zn39         O50   2.019       .  S
Zn40        O277   1.962   1_455  S
Zn40         O48   2.019   1_455  S
Zn40         O51   2.017       .  S
Zn40         O52   2.021       .  S
O41        Zn275   1.962       .  S
O41        Zn276   1.962   1_655  S
O42          C54   1.273       .  A
O43          C55   1.272       .  A
O44         C292   1.272   1_554  A
O45          C54   1.273       .  A
O46          C56   1.272       .  A
O47         C291   1.272       .  A
O48          C57   1.273       .  A
O49          C58   1.272   1_545  A
O50          C57   1.273       .  A
O51         C294   1.272   1_554  A
O52         C295   1.272   1_455  A
O53          C59   1.272       .  A
C54          C82   1.461       .  S
C55         C232   1.436       .  S
C55         O283   1.272       .  A
C56         C216   1.436       .  S
C56         O280   1.272       .  A
C57          C78   1.461       .  S
C58         C189   1.436       .  S
C58         O287   1.272       .  A
C59         C193   1.436       .  S
C59         O288   1.272   1_655  A
Zn60         O64   1.961       .  S
Zn60         O65   2.021       .  S
Zn60         O69   2.016   1_565  S
Zn60         O76   2.019       .  S
Zn61         O64   1.961       .  S
Zn61         O66   2.019       .  S
Zn61         O68   2.016       .  S
Zn61         O72   2.021       .  S
Zn62         O64   1.961   1_545  S
Zn62         O67   2.021       .  S
Zn62         O70   2.019   1_545  S
Zn62         O73   2.016   1_655  S
Zn63         O64   1.961   1_455  S
Zn63         O71   2.021       .  S
Zn63         O74   2.016       .  S
Zn63         O75   2.019   1_455  S
O65          C77   1.272       .  A
O66          C78   1.273       .  A
O67          C79   1.272       .  A
O68          C77   1.272       .  A
O69          C79   1.272       .  A
O70          C78   1.273       .  A
O71          C80   1.272       .  A
O72          C81   1.272       .  A
O73          C80   1.272   1_545  A
O74          C81   1.272   1_455  A
O75          C82   1.273       .  A
O76          C82   1.273       .  A
C77         C206   1.435       .  S
C79         C219   1.435       .  S
C80         C184   1.435       .  S
C81         C185   1.435       .  S
C83          C84   1.401       .  A
C83          C88   1.402   1_455  A
C83         C432   1.441       .  S
C84          C85   1.401       .  A
C84         H325   1.085       .  S
C85          C86   1.401       .  A
C85         C416   1.440       .  S
C86          C87   1.402       .  A
C86          H90   1.085       .  S
C87          C88   1.402   1_455  A
C87         C227   1.440   1_455  S
C88          H91   1.085       .  S
H89         C320   1.085       .  S
C92          C93   1.401       .  A
C92          C97   1.401   1_455  A
C92         C188   1.440       .  S
C93          C94   1.401       .  A
C93          H98   1.085       .  S
C94          C95   1.402       .  A
C94         C173   1.441       .  S
C95          C96   1.403       .  A
C95          H99   1.084       .  S
C96          C97   1.402   1_455  A
C96         C218   1.441   1_455  S
C97         H100   1.085       .  S
C101        C102   1.401       .  A
C101        C106   1.401       .  A
C101        C169   1.440       .  S
C102        C339   1.402       .  A
C102        H107   1.085       .  S
C103        C338   1.402       .  A
C103        C340   1.402   1_545  A
C103        C208   1.440   1_545  S
C104        C105   1.402   1_565  A
C104        C339   1.402   1_565  A
C104        H344   1.085       .  S
C105        C106   1.401       .  A
C105        C192   1.441       .  S
C106        H109   1.085       .  S
H108        C340   1.085       .  S
C110        C111   1.402       .  A
C110        C115   1.401       .  A
C110        C165   1.441       .  S
C111        C112   1.403       .  A
C111        H116   1.084       .  S
C112        C113   1.402   1_545  A
C112        C198   1.441   1_545  S
C113        C114   1.401   1_565  A
C113        H117   1.085       .  S
C114        C115   1.401       .  A
C114        C181   1.440       .  S
C115        H118   1.085       .  S
Zn119       O359   1.963   1_554  S
Zn119       O124   2.020       .  S
Zn119       O128   2.015       .  S
Zn119       O135   2.016       .  S
Zn120       O123   1.963       .  S
Zn120       O125   2.020       .  S
Zn120       O127   2.016       .  S
Zn120       O131   2.015       .  S
Zn121       O359   1.963   1_554  S
Zn121       O126   2.015       .  S
Zn121       O129   2.016       .  S
Zn121       O132   2.020       .  S
Zn122       O123   1.963       .  S
Zn122       O130   2.016       .  S
Zn122       O133   2.015       .  S
Zn122       O134   2.020       .  S
O123       Zn355   1.963       .  S
O123       Zn357   1.963       .  S
O124        C372   1.272   1_554  A
O125        C137   1.272       .  A
O126        C138   1.273       .  A
O127        C136   1.272       .  A
O128        C138   1.273       .  A
O129        C373   1.272       .  A
O130        C139   1.272       .  A
O131        C140   1.273       .  A
O132        C375   1.272   1_554  A
O133        C140   1.273       .  A
O134        C141   1.272       .  A
O135        C377   1.272       .  A
C136        C172   1.435       .  S
C136        O360   1.272       .  A
C137        C177   1.435       .  S
C137        O365   1.272       .  A
C138        C161   1.467       .  S
C139        C212   1.435       .  S
C139        O368   1.272       .  A
C140        C163   1.467       .  S
C141        C233   1.435       .  S
C141        O371   1.272       .  A
Zn142       O146   1.964       .  S
Zn142       O147   2.019       .  S
Zn142       O151   2.015       .  S
Zn142       O158   2.019       .  S
Zn143       O146   1.964       .  S
Zn143       O148   2.019       .  S
Zn143       O150   2.019       .  S
Zn143       O154   2.015       .  S
Zn144       O146   1.964       .  S
Zn144       O149   2.015       .  S
Zn144       O152   2.019       .  S
Zn144       O155   2.019       .  S
Zn145       O146   1.964       .  S
Zn145       O153   2.019       .  S
Zn145       O156   2.015       .  S
Zn145       O157   2.019       .  S
O147        C159   1.272       .  A
O148        C160   1.272       .  A
O149        C161   1.273       .  A
O150        C159   1.272       .  A
O151        C161   1.273       .  A
O152        C160   1.272       .  A
O153        C162   1.272       .  A
O154        C163   1.273       .  A
O155        C162   1.272       .  A
O156        C163   1.273       .  A
O157        C164   1.272       .  A
O158        C164   1.272       .  A
C159        C223   1.436       .  S
C160        C202   1.436       .  S
C162        C176   1.436       .  S
C164        C168   1.436       .  S
C165        C166   1.206       .  T
C166        C167   1.413       .  S
C167        C168   1.206       .  T
C169        C170   1.206       .  T
C170        C171   1.412       .  S
C171        C172   1.206       .  T
C173        C174   1.206       .  T
C174        C175   1.413       .  S
C175        C176   1.206       .  T
C177        C414   1.206       .  T
C178        C413   1.206       .  T
C178        C179   1.412       .  S
C179        C416   1.206       .  T
C180        C321   1.440       .  S
C180        C415   1.206       .  T
C181        C182   1.206       .  T
C182        C183   1.412   1_545  S
C183        C184   1.206       .  T
C185        C186   1.206       .  T
C186        C187   1.412   1_655  S
C187        C188   1.206       .  T
C189        C190   1.206       .  T
C190        C191   1.413   1_565  S
C191        C192   1.206       .  T
C193        C430   1.206       .  T
C194        C429   1.206       .  T
C194        C195   1.413   1_655  S
C195        C432   1.206       .  T
C196        C319   1.441       .  S
C196        C431   1.206       .  T
C197        C198   1.207       .  T
C199        C200   1.206       .  T
C200        C201   1.413       .  S
C201        C202   1.206       .  T
C203        C204   1.206       .  T
C204        C205   1.412       .  S
C205        C206   1.206       .  T
C207        C208   1.206       .  T
C209        C259   1.440       .  S
C209        C210   1.206       .  T
C210        C211   1.412       .  S
C211        C212   1.206       .  T
C213        C450   1.206       .  T
C214        C449   1.206       .  T
C214        C215   1.413       .  S
C215        C216   1.206       .  T
C217        C218   1.207       .  T
C219        C220   1.206       .  T
C220        C221   1.412       .  S
C221        C222   1.206       .  T
C223        C224   1.206       .  T
C224        C225   1.413       .  S
C225        C226   1.206       .  T
C227        C228   1.206       .  T
C229        C241   1.441       .  S
C229        C466   1.206       .  T
C230        C465   1.206       .  T
C230        C231   1.413       .  S
C231        C468   1.206       .  T
C232        C467   1.206       .  T
C233        C470   1.206       .  T
C234        C469   1.206       .  T
C234        C235   1.412       .  S
C235        C472   1.206       .  T
C236        C471   1.206       .  T
C237        C242   1.401       .  A
C237        C472   1.440       .  S
C238        C239   1.402       .  A
C238        H243   1.085       .  S
C239        C240   1.402       .  A
C239        C464   1.440       .  S
C240        C241   1.402       .  A
C240        H244   1.085       .  S
C242        H245   1.085       .  S
C246        C247   1.401       .  A
C246        C251   1.402       .  A
C246        C462   1.441       .  S
C247        C248   1.401       .  A
C247        H252   1.085       .  S
C248        C249   1.401       .  A
C248        C458   1.440       .  S
C249        C250   1.402       .  A
C249        H253   1.085       .  S
C250        C251   1.403       .  A
C250        C453   1.441       .  S
C251        H254   1.084       .  S
C255        C256   1.402       .  A
C255        C260   1.401       .  A
C255        C449   1.441       .  S
C256        C257   1.402       .  A
C256        H261   1.085       .  S
C257        C258   1.402       .  A
C257        C443   1.440       .  S
C258        C259   1.401       .  A
C258        H262   1.085       .  S
C259        C260   1.401       .  A
C260        H263   1.085       .  S
C264        C265   1.401       .  A
C264        C269   1.401       .  A
C264        C439   1.440       .  S
C265        C266   1.401       .  A
C265        H270   1.085       .  S
C266        C267   1.402       .  A
C266        C435   1.441       .  S
C267        C268   1.403       .  A
C267        H271   1.084       .  S
C268        C269   1.402       .  A
C268        C433   1.441       .  S
C269        H272   1.085       .  S
Zn273       O277   1.962   1_556  S
Zn273       O278   2.019       .  S
Zn273       O282   2.021       .  S
Zn273       O289   2.017       .  S
Zn274       O277   1.962   1_546  S
Zn274       O279   2.018       .  S
Zn274       O281   2.019   1_545  S
Zn274       O285   2.021   1_655  S
Zn275       O280   2.018       .  S
Zn275       O283   2.021   1_565  S
Zn275       O286   2.019       .  S
Zn276       O284   2.019   1_455  S
Zn276       O287   2.017       .  S
Zn276       O288   2.021       .  S
O278        C290   1.273       .  A
O279        C291   1.272   1_556  A
O281        C290   1.273       .  A
O282        C292   1.272       .  A
O284        C293   1.273       .  A
O285        C294   1.272   1_545  A
O286        C293   1.273       .  A
O289        C295   1.272   1_556  A
C290        C318   1.461       .  S
C291        C468   1.436       .  S
C292        C452   1.436       .  S
C293        C314   1.461       .  S
C294        C425   1.436       .  S
C295        C429   1.436       .  S
Zn296       O300   1.961       .  S
Zn296       O301   2.021       .  S
Zn296       O305   2.016   1_565  S
Zn296       O312   2.019       .  S
Zn297       O300   1.961       .  S
Zn297       O302   2.019       .  S
Zn297       O304   2.016       .  S
Zn297       O308   2.021       .  S
Zn298       O300   1.961   1_545  S
Zn298       O303   2.021       .  S
Zn298       O306   2.019   1_545  S
Zn298       O309   2.016   1_655  S
Zn299       O300   1.961   1_455  S
Zn299       O307   2.021       .  S
Zn299       O310   2.016       .  S
Zn299       O311   2.019   1_455  S
O301        C313   1.272       .  A
O302        C314   1.273       .  A
O303        C315   1.272       .  A
O304        C313   1.272       .  A
O305        C315   1.272       .  A
O306        C314   1.273       .  A
O307        C316   1.272       .  A
O308        C317   1.272       .  A
O309        C316   1.272   1_545  A
O310        C317   1.272   1_455  A
O311        C318   1.273       .  A
O312        C318   1.273       .  A
C313        C442   1.435       .  S
C315        C455   1.435       .  S
C316        C420   1.435       .  S
C317        C421   1.435       .  S
C319        C320   1.401       .  A
C319        C324   1.402   1_455  A
C320        C321   1.401       .  A
C321        C322   1.401       .  A
C322        C323   1.402       .  A
C322        H326   1.085       .  S
C323        C324   1.402   1_455  A
C323        C463   1.440   1_455  S
C324        H327   1.085       .  S
C328        C329   1.401       .  A
C328        C333   1.401   1_455  A
C328        C424   1.440       .  S
C329        C330   1.401       .  A
C329        H334   1.085       .  S
C330        C331   1.402       .  A
C330        C409   1.441       .  S
C331        C332   1.403       .  A
C331        H335   1.084       .  S
C332        C333   1.402   1_455  A
C332        C454   1.441   1_455  S
C333        H336   1.085       .  S
C337        C338   1.401       .  A
C337        C342   1.401       .  A
C337        C405   1.440       .  S
C338        H343   1.085       .  S
C339        C444   1.440   1_545  S
C340        C341   1.402   1_565  A
C341        C342   1.401       .  A
C341        C428   1.441       .  S
C342        H345   1.085       .  S
C346        C347   1.402       .  A
C346        C351   1.401       .  A
C346        C401   1.441       .  S
C347        C348   1.403       .  A
C347        H352   1.084       .  S
C348        C349   1.402   1_545  A
C348        C434   1.441   1_545  S
C349        C350   1.401   1_565  A
C349        H353   1.085       .  S
C350        C351   1.401       .  A
C350        C417   1.440       .  S
C351        H354   1.085       .  S
Zn355       O360   2.020       .  S
Zn355       O364   2.015       .  S
Zn355       O371   2.016       .  S
Zn356       O359   1.963       .  S
Zn356       O361   2.020       .  S
Zn356       O363   2.016       .  S
Zn356       O367   2.015       .  S
Zn357       O362   2.015       .  S
Zn357       O365   2.016       .  S
Zn357       O368   2.020       .  S
Zn358       O359   1.963       .  S
Zn358       O366   2.016       .  S
Zn358       O369   2.015       .  S
Zn358       O370   2.020       .  S
O361        C373   1.272   1_556  A
O362        C374   1.273       .  A
O363        C372   1.272       .  A
O364        C374   1.273       .  A
O366        C375   1.272       .  A
O367        C376   1.273       .  A
O369        C376   1.273       .  A
O370        C377   1.272   1_556  A
C372        C408   1.435       .  S
C373        C413   1.435       .  S
C374        C397   1.467       .  S
C375        C448   1.435       .  S
C376        C399   1.467       .  S
C377        C469   1.435       .  S
Zn378       O382   1.964       .  S
Zn378       O383   2.019       .  S
Zn378       O387   2.015       .  S
Zn378       O394   2.019       .  S
Zn379       O382   1.964       .  S
Zn379       O384   2.019       .  S
Zn379       O386   2.019       .  S
Zn379       O390   2.015       .  S
Zn380       O382   1.964       .  S
Zn380       O385   2.015       .  S
Zn380       O388   2.019       .  S
Zn380       O391   2.019       .  S
Zn381       O382   1.964       .  S
Zn381       O389   2.019       .  S
Zn381       O392   2.015       .  S
Zn381       O393   2.019       .  S
O383        C395   1.272       .  A
O384        C396   1.272       .  A
O385        C397   1.273       .  A
O386        C395   1.272       .  A
O387        C397   1.273       .  A
O388        C396   1.272       .  A
O389        C398   1.272       .  A
O390        C399   1.273       .  A
O391        C398   1.272       .  A
O392        C399   1.273       .  A
O393        C400   1.272       .  A
O394        C400   1.272       .  A
C395        C459   1.436       .  S
C396        C438   1.436       .  S
C398        C412   1.436       .  S
C400        C404   1.436       .  S
C401        C402   1.206       .  T
C402        C403   1.413       .  S
C403        C404   1.206       .  T
C405        C406   1.206       .  T
C406        C407   1.412       .  S
C407        C408   1.206       .  T
C409        C410   1.206       .  T
C410        C411   1.413       .  S
C411        C412   1.206       .  T
C414        C415   1.412       .  S
C417        C418   1.206       .  T
C418        C419   1.412   1_545  S
C419        C420   1.206       .  T
C421        C422   1.206       .  T
C422        C423   1.412   1_655  S
C423        C424   1.206       .  T
C425        C426   1.206       .  T
C426        C427   1.413   1_565  S
C427        C428   1.206       .  T
C430        C431   1.413   1_655  S
C433        C434   1.207       .  T
C435        C436   1.206       .  T
C436        C437   1.413       .  S
C437        C438   1.206       .  T
C439        C440   1.206       .  T
C440        C441   1.412       .  S
C441        C442   1.206       .  T
C443        C444   1.206       .  T
C445        C446   1.206       .  T
C446        C447   1.412       .  S
C447        C448   1.206       .  T
C450        C451   1.413       .  S
C451        C452   1.206       .  T
C453        C454   1.207       .  T
C455        C456   1.206       .  T
C456        C457   1.412       .  S
C457        C458   1.206       .  T
C459        C460   1.206       .  T
C460        C461   1.413       .  S
C461        C462   1.206       .  T
C463        C464   1.206       .  T
C466        C467   1.413       .  S
C470        C471   1.412       .  S
