geometry optimzed in LAMMPS
_audit_creation_date              2020-11-30 
_audit_creation_method            'lammps2cif' 
_symmetry_space_group_name_H-M    'P1' 
_symmetry_Int_Tables_number       1 
_symmetry_cell_setting            triclinic 
loop_ 
_symmetry_equiv_pos_as_xyz 
  x,y,z 
_cell_length_a                    64.42251061 
_cell_length_b                    64.45433070272684 
_cell_length_c                    64.42263031458991 
_cell_angle_alpha                 90.00586987979918 
_cell_angle_beta                  89.998702404079 
_cell_angle_gamma                 90.00497245059763 
loop_ 
_atom_site_label 
_atom_site_type_symbol 
_atom_site_fract_x 
_atom_site_fract_y 
_atom_site_fract_z 
_atom_site_charge 
N1          N  0.65680021  0.19677171  0.85233719    -0.25500
N2          N  0.65687455  0.19113783  0.87207703    -0.33400
C3          C  0.65860504  0.20819130  0.88402619     0.02800
C4          C  0.65962588  0.22524286  0.87109889     0.08800
C5          C  0.65847586  0.21753386  0.85116400    -0.04300
H6          H  0.65942495  0.20811277  0.90080036     0.09500
H7          H  0.65922142  0.22628707  0.83685229     0.10700
Cu8        Cu  0.65543194  0.16042406  0.88155804     0.44200
Cu9        Cu  0.65566092  0.17592466  0.82788472     0.42000
Cu10       Cu  0.65474385  0.12123889  0.84064001     0.43900
N11         N  0.65414804  0.12872920  0.88696685    -0.32900
N12         N  0.65384096  0.11448812  0.87215871    -0.27200
C13         C  0.65312338  0.09556735  0.88096762    -0.03300
C14         C  0.65297175  0.09813793  0.90222600     0.08900
C15         C  0.65363996  0.11925443  0.90556376     0.02700
H16         H  0.65284265  0.08106598  0.87251012     0.10400
H17         H  0.65383441  0.12717565  0.92037157     0.09500
N18         N  0.65650584  0.13247525  0.81046711    -0.34400
N19         N  0.65671718  0.15248681  0.80589531    -0.26600
C20         C  0.65861156  0.15475835  0.78523176    -0.01800
C21         C  0.65960784  0.13527387  0.77645397     0.06800
C22         C  0.65826887  0.12146416  0.79278670     0.04900
H23         H  0.65960081  0.16950795  0.77727270     0.10000
H24         H  0.65889874  0.10470965  0.79195669     0.08900
N25         N  0.94842691  0.19647286  0.56077905    -0.25500
N26         N  0.96815209  0.19079046  0.56090625    -0.33400
C27         C  0.98013699  0.20781516  0.56269594     0.02800
C28         C  0.96725017  0.22490280  0.56370202     0.08800
C29         C  0.94729925  0.21723791  0.56248003    -0.04300
H30         H  0.99690774  0.20769278  0.56357636     0.09500
H31         H  0.93300548  0.22602299  0.56320481     0.10700
Cu32       Cu  0.97754307  0.16003661  0.55948342     0.44200
Cu33       Cu  0.92394401  0.17565687  0.55956927     0.42000
Cu34       Cu  0.93657519  0.12088744  0.55873109     0.43900
N35         N  0.98292061  0.12832460  0.55823278    -0.32900
N36         N  0.96810299  0.11409278  0.55789661    -0.27200
C37         C  0.97690724  0.09516410  0.55722452    -0.03300
C38         C  0.99817192  0.09771927  0.55713657     0.08900
C39         C  0.00151396  0.11883649  0.55779124     0.02700
H40         H  0.96844305  0.08066668  0.55693736     0.10400
H41         H  0.01632511  0.12675031  0.55802584     0.09500
N42         N  0.90642290  0.13222965  0.56046599    -0.34400
N43         N  0.90190818  0.15225643  0.56063769    -0.26600
C44         C  0.88125168  0.15459327  0.56253377    -0.01800
C45         C  0.87241278  0.13513991  0.56357590     0.06800
C46         C  0.88870627  0.12127742  0.56226025     0.04900
H47         H  0.87333867  0.16936927  0.56350287     0.10000
H48         H  0.88782509  0.10452719  0.56293354     0.08900
N49         N  0.90029640  0.44183550  0.84988725    -0.25500
N50         N  0.90532161  0.44287660  0.86977154    -0.33400
C51         C  0.88796061  0.44103755  0.88127028     0.02800
C52         C  0.87135224  0.43876854  0.86791130     0.08800
C53         C  0.87964215  0.43931306  0.84818325    -0.04300
H54         H  0.88754873  0.44093193  0.89805985     0.09500
H55         H  0.87137517  0.43754389  0.83367022     0.10700
Cu56       Cu  0.93570328  0.44570165  0.88018584     0.44200
Cu57       Cu  0.92178536  0.44255800  0.82595415     0.42000
Cu58       Cu  0.97593115  0.44521371  0.84028771     0.43900
N59         N  0.96728828  0.44763457  0.88637135    -0.32900
N60         N  0.98187645  0.44744786  0.87189610    -0.27200
C61         C  0.00059531  0.44867541  0.88108670    -0.03300
C62         C  0.99755782  0.44969942  0.90225558     0.08900
C63         C  0.97635305  0.44898583  0.90514549     0.02700
H64         H  0.01528686  0.44868063  0.87294739     0.10400
H65         H  0.96810435  0.44928232  0.91977298     0.09500
N66         N  0.96573594  0.44228802  0.80984318    -0.34400
N67         N  0.94588196  0.44143508  0.80466578    -0.26600
C68         C  0.94431323  0.43885004  0.78400894    -0.01800
C69         C  0.96409841  0.43806553  0.77587630     0.06800
C70         C  0.97735115  0.44026143  0.79258010     0.04900
H71         H  0.92984673  0.43723012  0.77563134     0.10000
H72         H  0.99414152  0.44001118  0.79229667     0.08900
N73         N  0.74265062  0.39947042  0.89095770    -0.25500
N74         N  0.73754935  0.41933629  0.89177523    -0.33400
C75         C  0.75485196  0.43087670  0.88974666     0.02800
C76         C  0.77150736  0.41757462  0.88758926     0.08800
C77         C  0.76330796  0.39782299  0.88839421    -0.04300
H78         H  0.75520903  0.44765975  0.88958414     0.09500
H79         H  0.77165289  0.38332878  0.88693015     0.10700
Cu80       Cu  0.70719720  0.42971716  0.89490647     0.44200
Cu81       Cu  0.72127300  0.37548445  0.89244093     0.42000
Cu82       Cu  0.66716889  0.38978742  0.89591441     0.43900
N83         N  0.67564310  0.43588560  0.89719882    -0.32900
N84         N  0.66111996  0.42135891  0.89753139    -0.27200
C85         C  0.64237574  0.43047702  0.89874208    -0.03300
C86         C  0.64532324  0.45165963  0.89920198     0.08900
C87         C  0.66650649  0.45463768  0.89819529     0.02700
H88         H  0.62772439  0.42227445  0.89908876     0.10400
H89         H  0.67468439  0.46929976  0.89801806     0.09500
N90         N  0.67735318  0.35934072  0.89360075    -0.34400
N91         N  0.69718991  0.35416643  0.89243326    -0.26600
C92         C  0.69873080  0.33344824  0.89051948    -0.01800
C93         C  0.67894632  0.32528518  0.89051764     0.06800
C94         C  0.66571937  0.34202298  0.89245425     0.04900
H95         H  0.71316916  0.32503133  0.88887631     0.10000
H96         H  0.64892862  0.34171164  0.89267241     0.08900
N97         N  0.98910460  0.35369895  0.60163186    -0.25500
N98         N  0.99024012  0.35892469  0.58180595    -0.33400
C99         C  0.98900679  0.34163684  0.57013076     0.02800
C100        C  0.98704601  0.32486408  0.58331641     0.08800
C101        C  0.98712530  0.33298105  0.60312196    -0.04300
H102        H  0.98917067  0.34137000  0.55333906     0.09500
H103        H  0.98547727  0.32453402  0.61754236     0.10700
Cu104      Cu  0.99258289  0.38941527  0.57169185     0.44200
Cu105      Cu  0.98918719  0.37495852  0.62577341     0.42000
Cu106      Cu  0.99157012  0.42924747  0.61180598     0.43900
N107        N  0.99414491  0.42102147  0.56569689    -0.32900
N108        N  0.99381793  0.43551133  0.58025796    -0.27200
C109        C  0.99473974  0.45429131  0.57116586    -0.03300
C110        C  0.99568863  0.45137800  0.54996830     0.08900
C111        C  0.99527403  0.43019633  0.54697106     0.02700
H112        H  0.99453486  0.46893122  0.57938367     0.10400
H113        H  0.99558247  0.42203388  0.53229703     0.09500
N114        N  0.98841319  0.41878504  0.64213695    -0.34400
N115        N  0.98763882  0.39890585  0.64719590    -0.26600
C116        C  0.98503790  0.39720882  0.66784510    -0.01800
C117        C  0.98416130  0.41694020  0.67608578     0.06800
C118        C  0.98631522  0.43028325  0.65946129     0.04900
H119        H  0.98359090  0.38269327  0.67615585     0.10000
H120        H  0.98610127  0.44706411  0.65985344     0.08900
N121        N  0.69734233  0.11599783  0.64685943    -0.25500
N122        N  0.67747737  0.11610441  0.64165058    -0.33400
C123        C  0.66589807  0.11769611  0.65897622     0.02800
C124        C  0.67917194  0.11859777  0.67577095     0.08800
C125        C  0.69894500  0.11751057  0.66762464    -0.04300
H126        H  0.64912264  0.11845887  0.65926011     0.09500
H127        H  0.71343634  0.11814258  0.67609245     0.10700
Cu128      Cu  0.66716212  0.11480151  0.61117291     0.44200
Cu129      Cu  0.72142195  0.11493777  0.62549200     0.42000
Cu130      Cu  0.70711151  0.11454280  0.57121177     0.43900
N131        N  0.66099005  0.11368028  0.57958992    -0.32900
N132        N  0.67551478  0.11356978  0.56505793    -0.27200
C133        C  0.66636691  0.11287100  0.54629647    -0.03300
C134        C  0.64517135  0.11251674  0.54926656     0.08900
C135        C  0.64221797  0.11305408  0.57045972     0.02700
H136        H  0.67455611  0.11270177  0.53163389     0.10400
H137        H  0.62755998  0.11305313  0.57865968     0.09500
N138        N  0.73758482  0.11598384  0.58153983    -0.34400
N139        N  0.74278521  0.11599746  0.60140778    -0.26600
C140        C  0.76354215  0.11762204  0.60301341    -0.01800
C141        C  0.77169452  0.11865633  0.58323980     0.06800
C142        C  0.75490994  0.11760479  0.56996190     0.04900
H143        H  0.77199923  0.11835732  0.61750590     0.10000
H144        H  0.75519926  0.11828532  0.55318379     0.08900
N145        N  0.19710120  0.44156537  0.80488515    -0.25500
N146        N  0.17722163  0.44248416  0.80995351    -0.33400
C147        C  0.16569636  0.44050291  0.79262423     0.02800
C148        C  0.17903316  0.43826856  0.77599084     0.08800
C149        C  0.19877533  0.43898296  0.78423539    -0.04300
H150        H  0.14890679  0.44029637  0.79224945     0.09500
H151        H  0.21328241  0.43730332  0.77593921     0.10700
Cu152      Cu  0.16686793  0.44539404  0.84035348     0.44200
Cu153      Cu  0.22108129  0.44255118  0.82631545     0.42000
Cu154      Cu  0.20688538  0.44548457  0.88048070     0.43900
N155        N  0.16076315  0.44752593  0.87194633    -0.32900
N156        N  0.17527884  0.44756238  0.88649538    -0.27200
C157        C  0.16612971  0.44886853  0.90523057    -0.03300
C158        C  0.14494485  0.44970938  0.90224457     0.08900
C159        C  0.14200493  0.44880750  0.88105402     0.02700
H160        H  0.17430827  0.44904374  0.91989882     0.10400
H161        H  0.12735284  0.44892606  0.87284438     0.09500
N162        N  0.23731183  0.44258505  0.87022464    -0.34400
N163        N  0.24243879  0.44162818  0.85036202    -0.26600
C164        C  0.26309499  0.43906515  0.84875427    -0.01800
C165        C  0.27128026  0.43840527  0.86852191     0.06800
C166        C  0.25460753  0.44064949  0.88180581     0.04900
H167        H  0.27143664  0.43736619  0.83427529     0.10000
H168        H  0.25493321  0.44048335  0.89859674     0.08900
N169        N  0.19480638  0.19622766  0.56122816    -0.25500
N170        N  0.17505726  0.19062200  0.56130620    -0.33400
C171        C  0.16313794  0.20769602  0.56305141     0.02800
C172        C  0.17609379  0.22473283  0.56407861     0.08800
C173        C  0.19601460  0.21698842  0.56291551    -0.04300
H174        H  0.14636329  0.20764282  0.56387027     0.09500
H175        H  0.21034244  0.22571901  0.56365490     0.10700
Cu176      Cu  0.16554191  0.15990603  0.55982681     0.44200
Cu177      Cu  0.21922525  0.17533850  0.56005850     0.42000
Cu178      Cu  0.20642457  0.12065388  0.55909347     0.43900
N179        N  0.16010116  0.12820713  0.55846986    -0.32900
N180        N  0.17489030  0.11394791  0.55814493    -0.27200
C181        C  0.16605423  0.09503823  0.55738528    -0.03300
C182        C  0.14479811  0.09763220  0.55722545     0.08900
C183        C  0.14149135  0.11875294  0.55793211     0.02700
H184        H  0.17449201  0.08052692  0.55708921     0.10400
H185        H  0.12669435  0.12669071  0.55813956     0.09500
N186        N  0.23661134  0.13187134  0.56087279    -0.34400
N187        N  0.24119740  0.15188087  0.56109542    -0.26600
C188        C  0.26186446  0.15414044  0.56297648    -0.01800
C189        C  0.27063096  0.13465125  0.56395370     0.06800
C190        C  0.25428676  0.12085037  0.56261628     0.04900
H191        H  0.26983499  0.16888542  0.56396198     0.10000
H192        H  0.25510714  0.10409485  0.56322452     0.08900
N193        N  0.48597171  0.19654344  0.85255071    -0.25500
N194        N  0.48595284  0.19087110  0.87227898    -0.33400
C195        C  0.48419864  0.20789911  0.88426470     0.02800
C196        C  0.48310264  0.22497753  0.87137332     0.08800
C197        C  0.48423520  0.21730415  0.85142118    -0.04300
H198        H  0.48341709  0.20778566  0.90104090     0.09500
H199        H  0.48344168  0.22608184  0.83712664     0.10700
Cu200      Cu  0.48749114  0.16012481  0.88166662     0.44200
Cu201      Cu  0.48712448  0.17572453  0.82806844     0.42000
Cu202      Cu  0.48816703  0.12097592  0.84067676     0.43900
N203        N  0.48877341  0.12841209  0.88701376    -0.32900
N204        N  0.48907826  0.11418757  0.87218841    -0.27200
C205        C  0.48973790  0.09525412  0.88097673    -0.03300
C206        C  0.48985114  0.09779881  0.90223905     0.08900
C207        C  0.48922370  0.11891244  0.90559909     0.02700
H208        H  0.48997969  0.08076096  0.87250272     0.10400
H209        H  0.48899279  0.12681525  0.92041631     0.09500
N210        N  0.48631396  0.13230331  0.81054242    -0.34400
N211        N  0.48605979  0.15232840  0.80602847    -0.26600
C212        C  0.48413134  0.15465469  0.78537448    -0.01800
C213        C  0.48315505  0.13519444  0.77654239     0.06800
C214        C  0.48454292  0.12133997  0.79283257     0.04900
H215        H  0.48312079  0.16942534  0.77745732     0.10000
H216        H  0.48395636  0.10458609  0.79195298     0.08900
N217        N  0.44547835  0.35388497  0.89294781    -0.25500
N218        N  0.46531267  0.35907453  0.89411509    -0.33400
C219        C  0.47695580  0.34176391  0.89293529     0.02800
C220        C  0.46374008  0.32501301  0.89097572     0.08800
C221        C  0.44395054  0.33316643  0.89100052    -0.04300
H222        H  0.49374696  0.34146616  0.89314088     0.09500
H223        H  0.42951650  0.32474202  0.88934684     0.10700
Cu224      Cu  0.47547841  0.38954540  0.89644254     0.44200
Cu225      Cu  0.42137911  0.37519317  0.89299186     0.42000
Cu226      Cu  0.43543850  0.42945159  0.89542217     0.43900
N227        N  0.48152429  0.42113832  0.89798524    -0.32900
N228        N  0.46698926  0.43565087  0.89764939    -0.27200
C229        C  0.47610984  0.45441611  0.89856978    -0.03300
C230        C  0.49729831  0.45146823  0.89952715     0.08900
C231        C  0.50026428  0.43028408  0.89911970     0.02700
H232        H  0.46791660  0.46906806  0.89836624     0.10400
H233        H  0.51492476  0.42210035  0.89944264     0.09500
N234        N  0.40508882  0.41904886  0.89234814    -0.34400
N235        N  0.39999209  0.39917971  0.89154796    -0.26600
C236        C  0.37932906  0.39752482  0.88903196    -0.01800
C237        C  0.37112209  0.41727282  0.88823922     0.06800
C238        C  0.38777925  0.43058225  0.89035343     0.04900
H239        H  0.37098331  0.38302662  0.88759238     0.10000
H240        H  0.38741825  0.44736472  0.89018689     0.08900
N241        N  0.40028976  0.11549511  0.60144976    -0.25500
N242        N  0.40548253  0.11557080  0.58158046    -0.33400
C243        C  0.38814167  0.11709881  0.57001500     0.02800
C244        C  0.37135647  0.11799131  0.58330473     0.08800
C245        C  0.37952411  0.11696515  0.60307053    -0.04300
H246        H  0.38784119  0.11784076  0.55323919     0.09500
H247        H  0.37107087  0.11762463  0.61756951     0.10700
Cu248      Cu  0.43596457  0.11436485  0.57125154     0.44200
Cu249      Cu  0.42166877  0.11457358  0.62551425     0.42000
Cu250      Cu  0.47593475  0.11463835  0.61121051     0.43900
N251        N  0.46756106  0.11343752  0.56509457    -0.32900
N252        N  0.48209105  0.11353438  0.57962141    -0.27200
C253        C  0.50085924  0.11291331  0.57048216    -0.03300
C254        C  0.49789744  0.11239336  0.54928990     0.08900
C255        C  0.47670165  0.11275292  0.54632924     0.02700
H256        H  0.51552064  0.11290389  0.57867543     0.10400
H257        H  0.46850625  0.11259127  0.53166939     0.09500
N258        N  0.46560023  0.11599276  0.64168232    -0.34400
N259        N  0.44573223  0.11581598  0.64687811    -0.26600
C260        C  0.44410442  0.11738677  0.66763551    -0.01800
C261        C  0.46386372  0.11858664  0.67579358     0.06800
C262        C  0.47715812  0.11768927  0.65901294     0.04900
H263        H  0.42960283  0.11797141  0.67608997     0.10000
H264        H  0.49392993  0.11851623  0.65930956     0.08900
N265        N  0.15619561  0.39895300  0.64722113    -0.25500
N266        N  0.15543529  0.41882522  0.64213428    -0.33400
C267        C  0.15743607  0.43034778  0.65945399     0.02800
C268        C  0.15951202  0.41702913  0.67610770     0.08800
C269        C  0.15869004  0.39728539  0.66788657    -0.04300
H270        H  0.15762709  0.44712967  0.65982577     0.09500
H271        H  0.16009341  0.38278137  0.67622482     0.10700
Cu272      Cu  0.15237971  0.42924320  0.61178045     0.44200
Cu273      Cu  0.15473671  0.37498366  0.62580976     0.42000
Cu274      Cu  0.15136004  0.38938275  0.57169623     0.43900
N275        N  0.15009411  0.43547938  0.58023276    -0.32900
N276        N  0.14975465  0.42098036  0.56568121    -0.27200
C277        C  0.14854728  0.43014167  0.54695410    -0.03300
C278        C  0.14809586  0.45132342  0.54994225     0.08900
C279        C  0.14910353  0.45425139  0.57113393     0.02700
H280        H  0.14819431  0.42196982  0.53228570     0.10400
H281        H  0.14928235  0.46889605  0.57934412     0.09500
N282        N  0.15370583  0.35890758  0.58184802    -0.34400
N283        N  0.15483779  0.35370404  0.60168035    -0.26600
C284        C  0.15677875  0.33298456  0.60319343    -0.01800
C285        C  0.15683682  0.32484449  0.58339743     0.06800
C286        C  0.15490273  0.34160405  0.57019251     0.04900
H287        H  0.15839124  0.32454902  0.61762367     0.10000
H288        H  0.15470951  0.34131550  0.55340088     0.08900
N289        N  0.48509895  0.89809804  0.80428891    -0.25500
N290        N  0.48582785  0.91792644  0.80954989    -0.33400
C291        C  0.48458761  0.92959695  0.79225343     0.02800
C292        C  0.48304320  0.91641518  0.77542373     0.08800
C293        C  0.48338100  0.89660827  0.78353100    -0.04300
H294        H  0.48444527  0.94638148  0.79201611     0.09500
H295        H  0.48206893  0.88218011  0.77504326     0.10700
Cu296      Cu  0.48761535  0.92802851  0.84010332     0.44200
Cu297      Cu  0.48537494  0.87394647  0.82558808     0.42000
Cu298      Cu  0.48721738  0.88791106  0.87996381     0.43900
N299        N  0.48877423  0.93402410  0.87174589    -0.32900
N300        N  0.48866497  0.91946655  0.88623960    -0.27200
C301        C  0.48928720  0.92856324  0.90503640    -0.03300
C302        C  0.48981834  0.94976100  0.90212592     0.08900
C303        C  0.48946679  0.95275509  0.88093643     0.02700
H304        H  0.48920570  0.92034363  0.91967938     0.10400
H305        H  0.48956442  0.96742741  0.87277634     0.09500
N306        N  0.48477398  0.85756398  0.86946137    -0.34400
N307        N  0.48416388  0.85248480  0.84957016    -0.26600
C308        C  0.48190336  0.83179919  0.84789041    -0.01800
C309        C  0.48108071  0.82357158  0.86764278     0.06800
C310        C  0.48291165  0.84023441  0.88097635     0.04900
H311        H  0.48058862  0.82345588  0.83337410     0.10000
H312        H  0.48256785  0.83986946  0.89776369     0.08900
N313        N  0.24248310  0.89784438  0.56129382    -0.25500
N314        N  0.23725232  0.91768056  0.56059685    -0.33400
C315        C  0.25456267  0.92932514  0.56190916     0.02800
C316        C  0.27136624  0.91611582  0.56346699     0.08800
C317        C  0.26323235  0.89632194  0.56306241    -0.04300
H318        H  0.25482485  0.94610902  0.56210384     0.09500
H319        H  0.27169280  0.88188040  0.56437858     0.10700
Cu320      Cu  0.20671777  0.92782427  0.55879519     0.44200
Cu321      Cu  0.22116389  0.87371955  0.56096747     0.42000
Cu322      Cu  0.16682011  0.88773535  0.55924129     0.43900
N323        N  0.17508155  0.93384322  0.55767184    -0.32900
N324        N  0.16057464  0.91929631  0.55779901    -0.27200
C325        C  0.14178539  0.92840745  0.55721939    -0.03300
C326        C  0.14471501  0.94960316  0.55669830     0.08900
C327        C  0.16590788  0.95258182  0.55701018     0.02700
H328        H  0.12713473  0.92019907  0.55733132     0.10400
H329        H  0.17408103  0.96724747  0.55691522     0.09500
N330        N  0.17728585  0.85737975  0.56171271    -0.34400
N331        N  0.19717247  0.85228340  0.56227209    -0.26600
C332        C  0.19883960  0.83160643  0.56460358    -0.01800
C333        C  0.17908221  0.82340091  0.56552602     0.06800
C334        C  0.16575906  0.84006801  0.56368021     0.04900
H335        H  0.21335124  0.82325850  0.56591823     0.10000
H336        H  0.14897293  0.83972098  0.56410187     0.08900
N337        N  0.24223508  0.60562477  0.85042925    -0.25500
N338        N  0.23717822  0.60371570  0.87024135    -0.33400
C339        C  0.25450449  0.60523066  0.88183884     0.02800
C340        C  0.27111687  0.60819269  0.86861951     0.08800
C341        C  0.26286779  0.60840136  0.84887042    -0.04300
H342        H  0.25489763  0.60457378  0.89861657     0.09500
H343        H  0.27115569  0.61074878  0.83445143     0.10700
Cu344      Cu  0.20680714  0.60001290  0.88047210     0.44200
Cu345      Cu  0.22085733  0.60527424  0.82641604     0.42000
Cu346      Cu  0.16678605  0.60003523  0.84047331     0.43900
N347        N  0.17522463  0.59753845  0.88658701    -0.32900
N348        N  0.16068740  0.59755115  0.87206116    -0.27200
C349        C  0.14194538  0.59614591  0.88119634    -0.03300
C350        C  0.14490948  0.59518658  0.90238868     0.08900
C351        C  0.16610480  0.59612387  0.90533521     0.02700
H352        H  0.12728132  0.59604330  0.87300919     0.10400
H353        H  0.17430492  0.59600152  0.91999192     0.09500
N354        N  0.17702560  0.60371559  0.81009912    -0.34400
N355        N  0.19683944  0.60561562  0.80504330    -0.26600
C356        C  0.19840241  0.60838479  0.78441027    -0.01800
C357        C  0.17865453  0.60818021  0.77615841     0.06800
C358        C  0.16543130  0.60522842  0.79277031     0.04900
H359        H  0.21282266  0.61073020  0.77612528     0.10000
H360        H  0.14865319  0.60458267  0.79237556     0.08900
N361        N  0.39904691  0.64869404  0.89244630    -0.25500
N362        N  0.40454437  0.62895880  0.89366253    -0.33400
C363        C  0.38748607  0.61702071  0.89188403     0.02800
C364        C  0.37056177  0.62993082  0.88946686     0.08800
C365        C  0.37835841  0.64986242  0.88986375    -0.04300
H366        H  0.38749032  0.60023391  0.89196219     0.09500
H367        H  0.36972935  0.66414438  0.88800565     0.10700
Cu368      Cu  0.43511993  0.61932691  0.89674208     0.44200
Cu369      Cu  0.42005254  0.67306351  0.89320536     0.42000
Cu370      Cu  0.47459667  0.65980256  0.89741188     0.43900
N371        N  0.46673524  0.61361151  0.89901051    -0.32900
N372        N  0.48109719  0.62829844  0.89930949    -0.27200
C373        C  0.49993880  0.61936378  0.90054431    -0.03300
C374        C  0.49719789  0.59814240  0.90106154     0.08900
C375        C  0.47605463  0.59495975  0.90004253     0.02700
H376        H  0.51451143  0.62770661  0.90082805     0.10400
H377        H  0.46802061  0.58021796  0.89986478     0.09500
N378        N  0.46376524  0.68995940  0.89397708    -0.34400
N379        N  0.44384227  0.69473209  0.89249311    -0.26600
C380        C  0.44195927  0.71531606  0.88962033    -0.01800
C381        C  0.46160074  0.72381925  0.88930987     0.06800
C382        C  0.47509652  0.70741373  0.89207931     0.04900
H383        H  0.42738897  0.72338892  0.88748715     0.10000
H384        H  0.49187947  0.70802077  0.89228623     0.08900
N385        N  0.15460719  0.64872005  0.64825773    -0.25500
N386        N  0.15337944  0.62897847  0.64277912    -0.33400
C387        C  0.15522688  0.61705595  0.65983780     0.02800
C388        C  0.15770305  0.62998006  0.67674444     0.08800
C389        C  0.15726751  0.64990625  0.66893667    -0.04300
H390        H  0.15515391  0.60026889  0.65984431     0.09500
H391        H  0.15914684  0.66419598  0.67755059     0.10700
Cu392      Cu  0.15021191  0.61930052  0.61222723     0.44200
Cu393      Cu  0.15374867  0.67307654  0.62723664     0.42000
Cu394      Cu  0.14944214  0.65971223  0.57272264     0.43900
N395        N  0.14796647  0.61353522  0.58062110    -0.32900
N396        N  0.14763834  0.62820599  0.56624712    -0.27200
C397        C  0.14646483  0.61925173  0.54741095    -0.03300
C398        C  0.14601939  0.59803327  0.55016855     0.08900
C399        C  0.14701435  0.59487158  0.57131474     0.02700
H400        H  0.14618037  0.62758008  0.53283164     0.10400
H401        H  0.14723800  0.58013707  0.57935910     0.09500
N402        N  0.15282864  0.68988780  0.58349630    -0.34400
N403        N  0.15435094  0.69470723  0.60340594    -0.26600
C404        C  0.15719744  0.71530143  0.60523611    -0.01800
C405        C  0.15745069  0.72375667  0.58557322     0.06800
C406        C  0.15467510  0.70731570  0.57212168     0.04900
H407        H  0.15936130  0.72341235  0.61978220     0.10000
H408        H  0.15443991  0.70787944  0.55533792     0.08900
N409        N  0.44605259  0.93844623  0.64617431    -0.25500
N410        N  0.46589493  0.94001599  0.64112492    -0.33400
C411        C  0.47746816  0.93856602  0.65847683     0.02800
C412        C  0.46420032  0.93600324  0.67511945     0.08800
C413        C  0.44445050  0.93596555  0.66684486    -0.04300
H414        H  0.49425070  0.93905983  0.65887700     0.09500
H415        H  0.42999168  0.93398002  0.67515823     0.10700
Cu416      Cu  0.47610752  0.94336116  0.61074227     0.44200
Cu417      Cu  0.42205575  0.93888370  0.62469554     0.42000
Cu418      Cu  0.43596597  0.94321780  0.57059844     0.43900
N419        N  0.48206542  0.94575287  0.57916227    -0.32900
N420        N  0.46753278  0.94570148  0.56462833    -0.27200
C421        C  0.47665073  0.94705764  0.54588715    -0.03300
C422        C  0.49782403  0.94801934  0.54886345     0.08900
C423        C  0.50080200  0.94714398  0.57004014     0.02700
H424        H  0.46846355  0.94710617  0.53122249     0.10400
H425        H  0.51546562  0.94727490  0.57822756     0.09500
N426        N  0.40561393  0.93976128  0.58085150    -0.34400
N427        N  0.40057917  0.93823681  0.60070129    -0.26600
C428        C  0.37991901  0.93567665  0.60231931    -0.01800
C429        C  0.37163989  0.93561567  0.58257193     0.06800
C430        C  0.38826475  0.93820385  0.56929018     0.04900
H431        H  0.37161576  0.93372419  0.61678796     0.10000
H432        H  0.38785383  0.93865927  0.55250693     0.08900
N433        N  0.90022170  0.89816155  0.56189119    -0.25500
N434        N  0.90552134  0.91797321  0.56102635    -0.33400
C435        C  0.88825935  0.92968982  0.56229705     0.02800
C436        C  0.87141100  0.91655449  0.56400338     0.08800
C437        C  0.87947048  0.89672725  0.56372767    -0.04300
H438        H  0.88806131  0.94647561  0.56236144     0.09500
H439        H  0.87095887  0.88232669  0.56517429     0.10700
Cu440      Cu  0.93608378  0.92799428  0.55907272     0.44200
Cu441      Cu  0.92147784  0.87397649  0.56169600     0.42000
Cu442      Cu  0.97590292  0.88786945  0.55991420     0.43900
N443        N  0.96772443  0.93396203  0.55791568    -0.32900
N444        N  0.98221134  0.91940091  0.55820199    -0.27200
C445        C  0.00101354  0.92848526  0.55757925    -0.03300
C446        C  0.99811017  0.94967828  0.55686187     0.08900
C447        C  0.97692209  0.95268292  0.55710504     0.02700
H448        H  0.01565402  0.92026293  0.55780392     0.10400
H449        H  0.96876744  0.96735668  0.55687686     0.09500
N450        N  0.96533999  0.85756072  0.56251690    -0.34400
N451        N  0.94544020  0.85250916  0.56308905    -0.26600
C452        C  0.94372735  0.83183537  0.56541844    -0.01800
C453        C  0.96346620  0.82358820  0.56632625     0.06800
C454        C  0.97682738  0.84022437  0.56447380     0.04900
H455        H  0.92919677  0.82351225  0.56669647     0.10000
H456        H  0.99361366  0.83983534  0.56483675     0.08900
N457        N  0.65740984  0.89820956  0.80446485    -0.25500
N458        N  0.65669675  0.91805359  0.80966899    -0.33400
C459        C  0.65798770  0.92967377  0.79234241     0.02800
C460        C  0.65954763  0.91644101  0.77555496     0.08800
C461        C  0.65916731  0.89665864  0.78371585    -0.04300
H462        H  0.65812683  0.94645761  0.79205488     0.09500
H463        H  0.66045070  0.88220416  0.77526916     0.10700
Cu464      Cu  0.65479037  0.92824184  0.84018357     0.44200
Cu465      Cu  0.65699445  0.87410600  0.82581153     0.42000
Cu466      Cu  0.65486662  0.88816944  0.88011236     0.43900
N467        N  0.65346633  0.93427892  0.87180873    -0.32900
N468        N  0.65345970  0.91974064  0.88632258    -0.27200
C469        C  0.65278222  0.92886527  0.90510322    -0.03300
C470        C  0.65233480  0.95005970  0.90216085     0.08900
C471        C  0.65279357  0.95302478  0.88096988     0.02700
H472        H  0.65278679  0.92066640  0.91975802     0.10400
H473        H  0.65279967  0.96768617  0.87279044     0.09500
N474        N  0.65731230  0.85779028  0.86970091    -0.34400
N475        N  0.65803010  0.85267368  0.84982389    -0.26600
C476        C  0.66027162  0.83198220  0.84819346    -0.01800
C477        C  0.66096838  0.82378818  0.86796534     0.06800
C478        C  0.65908405  0.84047906  0.88125797     0.04900
H479        H  0.66166407  0.82361266  0.83369998     0.10000
H480        H  0.65933683  0.84014524  0.89804775     0.08900
N481        N  0.94533107  0.60572183  0.80513658    -0.25500
N482        N  0.96513932  0.60374818  0.81018252    -0.33400
C483        C  0.97673077  0.60519518  0.79284414     0.02800
C484        C  0.96351070  0.60817931  0.77623460     0.08800
C485        C  0.94376858  0.60847129  0.78450055    -0.04300
H486        H  0.99350578  0.60448529  0.79244099     0.09500
H487        H  0.92935309  0.61086763  0.77622172     0.10700
Cu488      Cu  0.97536674  0.60006196  0.84056255     0.44200
Cu489      Cu  0.92133366  0.60552110  0.82653990     0.42000
Cu490      Cu  0.93540685  0.60024630  0.88062371     0.43900
N491        N  0.98150165  0.59759003  0.87214674    -0.32900
N492        N  0.96698933  0.59765277  0.88669824    -0.27200
C493        C  0.97613804  0.59624678  0.90543356    -0.03300
C494        C  0.99732609  0.59523597  0.90245105     0.08900
C495        C  0.00025448  0.59614215  0.88125142     0.02700
H496        H  0.96796433  0.59619003  0.92010570     0.10400
H497        H  0.01490415  0.59598522  0.87303808     0.09500
N498        N  0.90505199  0.60409712  0.87039568    -0.34400
N499        N  0.89998862  0.60601399  0.85058536    -0.26600
C500        C  0.87936746  0.60888480  0.84904222    -0.01800
C501        C  0.87113415  0.60873016  0.86879894     0.06800
C502        C  0.88774213  0.60570054  0.88200582     0.04900
H503        H  0.87107712  0.61124549  0.83462790     0.10000
H504        H  0.88735696  0.60504519  0.89878356     0.08900
N505        N  0.98750570  0.64866396  0.64830671    -0.25500
N506        N  0.98870720  0.62892855  0.64280402    -0.33400
C507        C  0.98682637  0.61698800  0.65984819     0.02800
C508        C  0.98435645  0.62989623  0.67677028     0.08800
C509        C  0.98483095  0.64983065  0.66898499    -0.04300
H510        H  0.98689061  0.60020117  0.65983700     0.09500
H511        H  0.98298211  0.66411401  0.67761548     0.10700
Cu512      Cu  0.99194536  0.61930894  0.61223580     0.44200
Cu513      Cu  0.98844234  0.67303157  0.62730850     0.42000
Cu514      Cu  0.99297426  0.65977256  0.57276798     0.43900
N515        N  0.99438388  0.61358433  0.58063128    -0.32900
N516        N  0.99481773  0.62826883  0.56627322    -0.27200
C517        C  0.99612848  0.61933059  0.54743728    -0.03300
C518        C  0.99655182  0.59810842  0.55017779     0.08900
C519        C  0.99540236  0.59492939  0.57131403     0.02700
H520        H  0.99652522  0.62767230  0.53286796     0.10400
H521        H  0.99512674  0.58018793  0.57934386     0.09500
N522        N  0.98950039  0.68992244  0.58359515    -0.34400
N523        N  0.98789393  0.69469242  0.60351056    -0.26600
C524        C  0.98502573  0.71527743  0.60538202    -0.01800
C525        C  0.98484771  0.72378248  0.58574272     0.06800
C526        C  0.98768916  0.70737925  0.57225774     0.04900
H527        H  0.98281098  0.72335098  0.61994132     0.10000
H528        H  0.98800698  0.70798953  0.55547665     0.08900
N529        N  0.74321396  0.64914358  0.89295438    -0.25500
N530        N  0.73775552  0.62939114  0.89408655    -0.33400
C531        C  0.75483728  0.61749692  0.89226932     0.02800
C532        C  0.77173704  0.63045173  0.88991466     0.08800
C533        C  0.76390212  0.65036568  0.89038813    -0.04300
H534        H  0.75486284  0.60070982  0.89225964     0.09500
H535        H  0.77250241  0.66467163  0.88857548     0.10700
Cu536      Cu  0.70720213  0.61966010  0.89705293     0.44200
Cu537      Cu  0.72215930  0.67346867  0.89376385     0.42000
Cu538      Cu  0.66764889  0.66001978  0.89787329     0.43900
N539        N  0.67559877  0.61383684  0.89916568    -0.32900
N540        N  0.66120302  0.62848607  0.89952538    -0.27200
C541        C  0.64237877  0.61949579  0.90064312    -0.03300
C542        C  0.64516740  0.59827747  0.90101764     0.08900
C543        C  0.66632107  0.59515434  0.90003990     0.02700
H544        H  0.62778650  0.62780061  0.90096118     0.10400
H545        H  0.67439125  0.58043499  0.89980211     0.09500
N546        N  0.67839468  0.69022601  0.89455277    -0.34400
N547        N  0.69830431  0.69506602  0.89309336    -0.26600
C548        C  0.70012510  0.71565855  0.89023682    -0.01800
C549        C  0.68045751  0.72409869  0.88991122     0.06800
C550        C  0.66701077  0.70764505  0.89265534     0.04900
H551        H  0.71467086  0.72377780  0.88810306     0.10000
H552        H  0.65022524  0.70819269  0.89282078     0.08900
N553        N  0.69653732  0.93848567  0.64633226    -0.25500
N554        N  0.67670743  0.94006918  0.64124198    -0.33400
C555        C  0.66509028  0.93852192  0.65855680     0.02800
C556        C  0.67831924  0.93587756  0.67521626     0.08800
C557        C  0.69808896  0.93589619  0.66699190    -0.04300
H558        H  0.64830727  0.93902613  0.65892115     0.09500
H559        H  0.71252912  0.93390179  0.67533371     0.10700
Cu560      Cu  0.66658364  0.94358532  0.61085454     0.44200
Cu561      Cu  0.72059376  0.93912050  0.62492817     0.42000
Cu562      Cu  0.70685026  0.94373388  0.57081919     0.43900
N563        N  0.66071651  0.94605209  0.57926825    -0.32900
N564        N  0.67528876  0.94610011  0.56477307    -0.27200
C565        C  0.66621428  0.94745696  0.54601131    -0.03300
C566        C  0.64502932  0.94831524  0.54893579     0.08900
C567        C  0.64199918  0.94737739  0.57010103     0.02700
H568        H  0.67443920  0.94757101  0.53136762     0.10400
H569        H  0.62731281  0.94741439  0.57825036     0.09500
N570        N  0.73718511  0.94036426  0.58115155    -0.34400
N571        N  0.74215753  0.93873997  0.60100858    -0.26600
C572        C  0.76282064  0.93624575  0.60268216    -0.01800
C573        C  0.77116831  0.93633189  0.58296342     0.06800
C574        C  0.75457922  0.93893609  0.56964048     0.04900
H575        H  0.77107743  0.93421366  0.61716578     0.10000
H576        H  0.75504302  0.93946642  0.55286073     0.08900
N577        N  0.24221954  0.60472140  0.10205043    -0.25500
N578        N  0.23716444  0.60293678  0.08222669    -0.33400
C579        C  0.25450424  0.60444162  0.07064514     0.02800
C580        C  0.27112505  0.60726311  0.08388812     0.08800
C581        C  0.26286350  0.60740252  0.10363401    -0.04300
H582        H  0.25489994  0.60389662  0.05386318     0.09500
H583        H  0.27114837  0.60966948  0.11806716     0.10700
Cu584      Cu  0.20676814  0.59945119  0.07198171     0.44200
Cu585      Cu  0.22081019  0.60443265  0.12603960     0.42000
Cu586      Cu  0.16669684  0.59961754  0.11195615     0.43900
N587        N  0.17517332  0.59713881  0.06584846    -0.32900
N588        N  0.16062167  0.59719286  0.08036115    -0.27200
C589        C  0.14188171  0.59589762  0.07120588    -0.03300
C590        C  0.14486189  0.59497020  0.05001430     0.08900
C591        C  0.16606400  0.59580748  0.04708967     0.02700
H592        H  0.12720874  0.59585380  0.07937929     0.10400
H593        H  0.17427731  0.59567648  0.03243989     0.09500
N594        N  0.17694984  0.60329183  0.14232402    -0.34400
N595        N  0.19677558  0.60502863  0.14739220    -0.26600
C596        C  0.19834272  0.60785802  0.16801777    -0.01800
C597        C  0.17858456  0.60786448  0.17624933     0.06800
C598        C  0.16535251  0.60497380  0.15963512     0.04900
H599        H  0.21277512  0.61010446  0.17630919     0.10000
H600        H  0.14856919  0.60448511  0.16001504     0.08900
N601        N  0.24223564  0.89803123  0.38975367    -0.25500
N602        N  0.23707286  0.91788919  0.39032780    -0.33400
C603        C  0.25442863  0.92946575  0.38901038     0.02800
C604        C  0.27119145  0.91618944  0.38758079     0.08800
C605        C  0.26298581  0.89642636  0.38806285    -0.04300
H606        H  0.25475219  0.94624747  0.38874652     0.09500
H607        H  0.27140138  0.88194747  0.38687171     0.10700
Cu608      Cu  0.20656970  0.92814218  0.39205355     0.44200
Cu609      Cu  0.22082781  0.87398306  0.39020287     0.42000
Cu610      Cu  0.16653485  0.88814772  0.39198575     0.43900
N611        N  0.17495166  0.93424718  0.39324193    -0.32900
N612        N  0.16040131  0.91974192  0.39325460    -0.27200
C613        C  0.14164183  0.92891303  0.39385587    -0.03300
C614        C  0.14463616  0.95010256  0.39424498     0.08900
C615        C  0.16583556  0.95301612  0.39383398     0.02700
H616        H  0.12696647  0.92074802  0.39385225     0.10400
H617        H  0.17405242  0.96765836  0.39381988     0.09500
N618        N  0.17690658  0.85774175  0.38969090    -0.34400
N619        N  0.19677923  0.85259475  0.38910147    -0.26600
C620        C  0.19839073  0.83189794  0.38690504    -0.01800
C621        C  0.17861202  0.82372940  0.38610432     0.06800
C622        C  0.16533325  0.84044198  0.38788008     0.04900
H623        H  0.21287892  0.82350823  0.38559818     0.10000
H624        H  0.14854484  0.84013128  0.38751323     0.08900
N625        N  0.48514642  0.89796904  0.14649532    -0.25500
N626        N  0.48585163  0.91779223  0.14122089    -0.33400
C627        C  0.48453112  0.92947772  0.15850234     0.02800
C628        C  0.48296099  0.91630873  0.17533615     0.08800
C629        C  0.48336697  0.89649447  0.16724788    -0.04300
H630        H  0.48432428  0.94626223  0.15872306     0.09500
H631        H  0.48202654  0.88207321  0.17573961     0.10700
Cu632      Cu  0.48764311  0.92785063  0.11066164     0.44200
Cu633      Cu  0.48542345  0.87382188  0.12520010     0.42000
Cu634      Cu  0.48703428  0.88775546  0.07077424     0.43900
N635        N  0.48875001  0.93385498  0.07902611    -0.32900
N636        N  0.48856015  0.91931196  0.06451580    -0.27200
C637        C  0.48914847  0.92842844  0.04572826    -0.03300
C638        C  0.48974000  0.94962247  0.04866742     0.08900
C639        C  0.48946171  0.95259335  0.06985965     0.02700
H640        H  0.48899615  0.92022678  0.03107464     0.10400
H641        H  0.48961344  0.96725601  0.07803913     0.09500
N642        N  0.48454748  0.85742802  0.08132581    -0.34400
N643        N  0.48403437  0.85237091  0.10122506    -0.26600
C644        C  0.48172140  0.83169633  0.10293868    -0.01800
C645        C  0.48076292  0.82344996  0.08320183     0.06800
C646        C  0.48256872  0.84008976  0.06983922     0.04900
H647        H  0.48046638  0.82337431  0.11747021     0.10000
H648        H  0.48213620  0.83970384  0.05305404     0.08900
N649        N  0.39889567  0.64821369  0.05984570    -0.25500
N650        N  0.40446819  0.62850462  0.05855349    -0.33400
C651        C  0.38747631  0.61648961  0.06045231     0.02800
C652        C  0.37051433  0.62932157  0.06303001     0.08800
C653        C  0.37822251  0.64928887  0.06259900    -0.04300
H654        H  0.38754992  0.59970310  0.06031893     0.09500
H655        H  0.36954299  0.66353180  0.06451887     0.10700
Cu656      Cu  0.43506162  0.61902379  0.05516163     0.44200
Cu657      Cu  0.41980405  0.67266335  0.05888213     0.42000
Cu658      Cu  0.47440013  0.65961110  0.05411646     0.43900
N659        N  0.46667713  0.61340268  0.05263184    -0.32900
N660        N  0.48099529  0.62812866  0.05220310    -0.27200
C661        C  0.49985314  0.61924385  0.05083737    -0.03300
C662        C  0.49716623  0.59801281  0.05036937     0.08900
C663        C  0.47604022  0.59477595  0.05155411     0.02700
H664        H  0.51440039  0.62762605  0.05043631     0.10400
H665        H  0.46804848  0.58001267  0.05181977     0.09500
N666        N  0.46345585  0.68971960  0.05760722    -0.34400
N667        N  0.44352984  0.69441418  0.05930214    -0.26600
C668        C  0.44159397  0.71500069  0.06212635    -0.01800
C669        C  0.46120211  0.72358446  0.06218166     0.06800
C670        C  0.47473395  0.70722712  0.05931476     0.04900
H671        H  0.42701456  0.72302402  0.06438097     0.10000
H672        H  0.49151023  0.70790572  0.05889771     0.08900
N673        N  0.40037056  0.93798373  0.35024631    -0.25500
N674        N  0.40549463  0.93961320  0.37006472    -0.33400
C675        C  0.38819940  0.93810684  0.38171489     0.02800
C676        C  0.37151549  0.93543988  0.36852256     0.08800
C677        C  0.37970498  0.93540401  0.34873728    -0.04300
H678        H  0.38786492  0.93865517  0.39849726     0.09500
H679        H  0.37133533  0.93338197  0.33431673     0.10700
Cu680      Cu  0.43589122  0.94314226  0.38015271     0.44200
Cu681      Cu  0.42173708  0.93856616  0.32614885     0.42000
Cu682      Cu  0.47586053  0.94332374  0.33987830     0.43900
N683        N  0.46747359  0.94565461  0.38601140    -0.32900
N684        N  0.48195519  0.94571766  0.37142719    -0.27200
C685        C  0.50072265  0.94712704  0.38048353    -0.03300
C686        C  0.49781448  0.94800463  0.40167091     0.08900
C687        C  0.47665343  0.94702233  0.40471965     0.02700
H688        H  0.51535835  0.94727316  0.37224512     0.10400
H689        H  0.46851547  0.94706840  0.41941249     0.09500
N690        N  0.46551297  0.93991898  0.30955322    -0.34400
N691        N  0.44566000  0.93823337  0.30458083    -0.26600
C692        C  0.44399599  0.93573621  0.28391549    -0.01800
C693        C  0.46371670  0.93588490  0.27557005     0.06800
C694        C  0.47702856  0.93852950  0.29216031     0.04900
H695        H  0.42951934  0.93366576  0.27565543     0.10000
H696        H  0.49380688  0.93911658  0.29169787     0.08900
N697        N  0.15429265  0.64879186  0.30399978    -0.25500
N698        N  0.15311703  0.62906107  0.30952389    -0.33400
C699        C  0.15497917  0.61710113  0.29249098     0.02800
C700        C  0.15741023  0.62998949  0.27555343     0.08800
C701        C  0.15693312  0.64993362  0.28331612    -0.04300
H702        H  0.15496464  0.60031361  0.29252480     0.09500
H703        H  0.15878796  0.66420575  0.27467044     0.10700
Cu704      Cu  0.15003782  0.61945036  0.34010309     0.44200
Cu705      Cu  0.15342305  0.67319275  0.32497229     0.42000
Cu706      Cu  0.14915884  0.65993028  0.37953188     0.43900
N707        N  0.14786823  0.61372647  0.37172076    -0.32900
N708        N  0.14749379  0.62841788  0.38607558    -0.27200
C709        C  0.14634868  0.61948216  0.40492370    -0.03300
C710        C  0.14596990  0.59825456  0.40219243     0.08900
C711        C  0.14697659  0.59507191  0.38104852     0.02700
H712        H  0.14601754  0.62782957  0.41949306     0.10400
H713        H  0.14722677  0.58032902  0.37301844     0.09500
N714        N  0.15245953  0.69009995  0.36868241    -0.34400
N715        N  0.15397863  0.69487444  0.34876182    -0.26600
C716        C  0.15677662  0.71547104  0.34688392    -0.01800
C717        C  0.15699909  0.72398000  0.36652569     0.06800
C718        C  0.15425737  0.70756442  0.38001519     0.04900
H719        H  0.15892772  0.72354902  0.33231892     0.10000
H720        H  0.15401496  0.70817140  0.39679719     0.08900
N721        N  0.65733680  0.89811787  0.14632888    -0.25500
N722        N  0.65659439  0.91795251  0.14110197    -0.33400
C723        C  0.65792419  0.92959867  0.15840910     0.02800
C724        C  0.65953742  0.91639051  0.17520720     0.08800
C725        C  0.65914912  0.89659624  0.16707390    -0.04300
H726        H  0.65808247  0.94638309  0.15867275     0.09500
H727        H  0.66049708  0.88215584  0.17553167     0.10700
Cu728      Cu  0.65468049  0.92808355  0.11057556     0.44200
Cu729      Cu  0.65699673  0.87400796  0.12499811     0.42000
Cu730      Cu  0.65516735  0.88803548  0.07063440     0.43900
N731        N  0.65347824  0.93412856  0.07895271    -0.32900
N732        N  0.65363380  0.91960278  0.06442452    -0.27200
C733        C  0.65302549  0.92874294  0.04564977    -0.03300
C734        C  0.65245450  0.94993338  0.04861491     0.08900
C735        C  0.65276659  0.95287877  0.06981026     0.02700
H736        H  0.65316404  0.92055907  0.03098501     0.10400
H737        H  0.65265451  0.96753183  0.07800706     0.09500
N738        N  0.65766416  0.85768011  0.08110742    -0.34400
N739        N  0.65826157  0.85258713  0.10099429    -0.26600
C740        C  0.66055326  0.83190660  0.10266238    -0.01800
C741        C  0.66140825  0.82369259  0.08290668     0.06800
C742        C  0.65956475  0.84035913  0.06958150     0.04900
H743        H  0.66186150  0.82355822  0.11717397     0.10000
H744        H  0.65991798  0.84000204  0.05279429     0.08900
N745        N  0.90048374  0.89835315  0.38895826    -0.25500
N746        N  0.90572466  0.91818595  0.38969017    -0.33400
C747        C  0.88842216  0.92984101  0.38839609     0.02800
C748        C  0.87160878  0.91664354  0.38681607     0.08800
C749        C  0.87973164  0.89684332  0.38718773    -0.04300
H750        H  0.88816917  0.94662566  0.38826018     0.09500
H751        H  0.87125868  0.88240671  0.38587864     0.10700
Cu752      Cu  0.93626156  0.92830365  0.39160479     0.44200
Cu753      Cu  0.92181346  0.87423231  0.38932719     0.42000
Cu754      Cu  0.97618763  0.88823881  0.39136113     0.43900
N755        N  0.96788778  0.93433665  0.39290801    -0.32900
N756        N  0.98240611  0.91980295  0.39285065    -0.27200
C757        C  0.00118511  0.92893185  0.39352913    -0.03300
C758        C  0.99823464  0.95012434  0.39404302     0.08900
C759        C  0.97704283  0.95308287  0.39362379     0.02700
H760        H  0.01584321  0.92073823  0.39348092     0.10400
H761        H  0.96885784  0.96774125  0.39367355     0.09500
N762        N  0.96570929  0.85788665  0.38887968    -0.34400
N763        N  0.94582242  0.85279814  0.38820076    -0.26600
C764        C  0.94415935  0.83210883  0.38597175    -0.01800
C765        C  0.96391664  0.82388680  0.38524286     0.06800
C766        C  0.97723808  0.84055717  0.38709528     0.04900
H767        H  0.92965114  0.82375579  0.38463694     0.10000
H768        H  0.99402763  0.84019460  0.38684102     0.08900
N769        N  0.94535116  0.60512189  0.14729094    -0.25500
N770        N  0.96516990  0.60328112  0.14223334    -0.33400
C771        C  0.97676454  0.60486730  0.15955626     0.02800
C772        C  0.96353791  0.60780235  0.17616910     0.08800
C773        C  0.94378608  0.60792176  0.16792136    -0.04300
H774        H  0.99354495  0.60428502  0.15994586     0.09500
H775        H  0.92936048  0.61023609  0.17620696     0.10700
Cu776      Cu  0.97541069  0.59960180  0.11185785     0.44200
Cu777      Cu  0.92133728  0.60470718  0.12590578     0.42000
Cu778      Cu  0.93540946  0.59966389  0.07182049     0.43900
N779        N  0.98153171  0.59721741  0.08026498    -0.32900
N780        N  0.96700824  0.59724596  0.06572464    -0.27200
C781        C  0.97615214  0.59593951  0.04697873    -0.03300
C782        C  0.99734776  0.59503172  0.04994209     0.08900
C783        C  0.00028604  0.59589126  0.07114253     0.02700
H784        H  0.96796883  0.59587933  0.03231269     0.10400
H785        H  0.01494165  0.59578695  0.07934462     0.09500
N786        N  0.90502736  0.60331721  0.08206202    -0.34400
N787        N  0.89996362  0.60513434  0.10188193    -0.26600
C788        C  0.87933105  0.60791709  0.10344622    -0.01800
C789        C  0.87108709  0.60781000  0.08369283     0.06800
C790        C  0.88770501  0.60490070  0.07046621     0.04900
H791        H  0.87104177  0.61021201  0.11787239     0.10000
H792        H  0.88731882  0.60433444  0.05368503     0.08900
N793        N  0.74334056  0.64863823  0.05923233    -0.25500
N794        N  0.73779752  0.62891233  0.05805633    -0.33400
C795        C  0.75480931  0.61693678  0.05999862     0.02800
C796        C  0.77175434  0.62981072  0.06248343     0.08800
C797        C  0.76401555  0.64976254  0.06195274    -0.04300
H798        H  0.75475686  0.60014961  0.05998663     0.09500
H799        H  0.77267220  0.66402878  0.06381071     0.10700
Cu800      Cu  0.70721552  0.61934445  0.05483795     0.44200
Cu801      Cu  0.72239204  0.67305113  0.05822733     0.42000
Cu802      Cu  0.66781479  0.65984752  0.05374244     0.43900
N803        N  0.67560191  0.61364380  0.05252463    -0.32900
N804        N  0.66125783  0.62834095  0.05207554    -0.27200
C805        C  0.64240925  0.61941376  0.05084625    -0.03300
C806        C  0.64513130  0.59818553  0.05049146     0.08900
C807        C  0.66626710  0.59499366  0.05159722     0.02700
H808        H  0.62784754  0.62776678  0.05043645     0.10400
H809        H  0.67428678  0.58024728  0.05188598     0.09500
N810        N  0.67869986  0.69000143  0.05705062    -0.34400
N811        N  0.69862118  0.69475146  0.05865012    -0.26600
C812        C  0.70051773  0.71534820  0.06143046    -0.01800
C813        C  0.68088881  0.72388180  0.06155657     0.06800
C814        C  0.66738545  0.70748261  0.05877669     0.04900
H815        H  0.71508471  0.72340993  0.06363465     0.10000
H816        H  0.65060552  0.70811201  0.05845962     0.08900
N817        N  0.98778493  0.64865485  0.30393860    -0.25500
N818        N  0.98895085  0.62893480  0.30949855    -0.33400
C819        C  0.98705485  0.61694393  0.29248919     0.02800
C820        C  0.98461276  0.62980393  0.27552913     0.08800
C821        C  0.98511901  0.64976154  0.28325648    -0.04300
H822        H  0.98707328  0.60015721  0.29255175     0.09500
H823        H  0.98328143  0.66402046  0.27458586     0.10700
Cu824      Cu  0.99212332  0.61940869  0.34009854     0.44200
Cu825      Cu  0.98872511  0.67308067  0.32487410     0.42000
Cu826      Cu  0.99317167  0.65996327  0.37947482     0.43900
N827        N  0.99448692  0.61374862  0.37171743    -0.32900
N828        N  0.99492809  0.62846018  0.38605059    -0.27200
C829        C  0.99621111  0.61955048  0.40490322    -0.03300
C830        C  0.99660939  0.59831926  0.40219666     0.08900
C831        C  0.99547208  0.59510866  0.38106403     0.02700
H832        H  0.99662277  0.62791686  0.41945904     0.10400
H833        H  0.99519867  0.58035477  0.37305437     0.09500
N834        N  0.98978727  0.69009757  0.36854744    -0.26000
N835        N  0.98820476  0.69480936  0.34861654    -0.26600
C836        C  0.98539487  0.71539680  0.34668080    -0.01800
C837        C  0.98523206  0.72396842  0.36629334     0.06800
C838        C  0.98802041  0.70759886  0.37982976     0.04900
H839        H  0.98321267  0.72342862  0.33209570     0.10000
H840        H  0.98833357  0.70826380  0.39660835     0.08900
N841        N  0.74235091  0.93858463  0.34984437    -0.25500
N842        N  0.73731631  0.94029861  0.36967839    -0.33400
C843        C  0.75467136  0.93890071  0.38125250     0.02800
C844        C  0.77130132  0.93621948  0.36799332     0.08800
C845        C  0.76301651  0.93605990  0.34824831    -0.04300
H846        H  0.75508063  0.93950535  0.39803107     0.09500
H847        H  0.77131914  0.93396415  0.33379945     0.10700
Cu848      Cu  0.70694867  0.94373503  0.37988920     0.44200
Cu849      Cu  0.72086056  0.93892483  0.32585468     0.42000
Cu850      Cu  0.66678819  0.94357494  0.33977822     0.43900
N851        N  0.67537567  0.94609735  0.38586692    -0.32900
N852        N  0.66083361  0.94603697  0.37134320    -0.27200
C853        C  0.64209637  0.94736195  0.38047158    -0.03300
C854        C  0.64508557  0.94831533  0.40164238     0.08900
C855        C  0.66626380  0.94746357  0.40460921     0.02700
H856        H  0.62742695  0.94739530  0.37229320     0.10400
H857        H  0.67445956  0.94759280  0.41926848     0.09500
N858        N  0.67701333  0.94005324  0.30943086    -0.34400
N859        N  0.69685086  0.93839288  0.30439051    -0.26600
C860        C  0.69844280  0.93581211  0.28373132    -0.01800
C861        C  0.67869198  0.93588019  0.27546114     0.06800
C862        C  0.66543454  0.93856578  0.29208824     0.04900
H863        H  0.71289466  0.93376032  0.27542222     0.10000
H864        H  0.64865424  0.93913080  0.29168439     0.08900
N865        N  0.90019081  0.44156541  0.10174536    -0.25500
N866        N  0.90528466  0.44256730  0.08187625    -0.33400
C867        C  0.88797239  0.44065364  0.07031921     0.02800
C868        C  0.87132239  0.43837556  0.08362207     0.08800
C869        C  0.87953643  0.43899413  0.10338003    -0.04300
H870        H  0.88761977  0.44053030  0.05352845     0.09500
H871        H  0.87121592  0.43726951  0.11786820     0.10700
Cu872      Cu  0.93567953  0.44551126  0.07154851     0.44200
Cu873      Cu  0.92158956  0.44247809  0.12575453     0.42000
Cu874      Cu  0.97575773  0.44560943  0.11155388     0.43900
N875        N  0.96726092  0.44765198  0.06544172    -0.32900
N876        N  0.98180281  0.44769205  0.07996241    -0.27200
C877        C  0.00054185  0.44898708  0.07082242    -0.03300
C878        C  0.99756204  0.44981620  0.04963723     0.08900
C879        C  0.97637388  0.44891973  0.04668672     0.02700
H880        H  0.01520717  0.44915452  0.07900658     0.10400
H881        H  0.96817054  0.44902458  0.03203164     0.09500
N882        N  0.96550151  0.44267673  0.14196809    -0.34400
N883        N  0.94564522  0.44163425  0.14710308    -0.26600
C884        C  0.94405836  0.43908845  0.16776345    -0.01800
C885        C  0.96383458  0.43853093  0.17593637     0.06800
C886        C  0.97709909  0.44081633  0.15925798     0.04900
H887        H  0.92959167  0.43734660  0.17611661     0.10000
H888        H  0.99389044  0.44073926  0.15957695     0.08900
N889        N  0.94833120  0.19697272  0.39017766    -0.25500
N890        N  0.96806299  0.19130882  0.39002900    -0.33400
C891        C  0.98003308  0.20834722  0.38830796     0.02800
C892        C  0.96713298  0.22542293  0.38737093     0.08800
C893        C  0.94718767  0.21774261  0.38856049    -0.04300
H894        H  0.99680503  0.20824312  0.38743636     0.09500
H895        H  0.93288823  0.22652127  0.38787932     0.10700
Cu896      Cu  0.97752638  0.16058385  0.39136890     0.44200
Cu897      Cu  0.92384577  0.17615538  0.39133645     0.42000
Cu898      Cu  0.93658086  0.12145299  0.39217788     0.43900
N899        N  0.98292681  0.12888521  0.39261484    -0.32900
N900        N  0.96810778  0.11465692  0.39297697    -0.27200
C901        C  0.97690874  0.09572865  0.39365495    -0.03300
C902        C  0.99817281  0.09828059  0.39371946     0.08900
C903        C  0.00152004  0.11939638  0.39304507     0.02700
H904        H  0.96844193  0.08123304  0.39396543     0.10400
H905        H  0.01633191  0.12730749  0.39279453     0.09500
N906        N  0.90639657  0.13271190  0.39047428    -0.34400
N907        N  0.90183620  0.15272721  0.39029289    -0.26600
C908        C  0.88117036  0.15501417  0.38842674    -0.01800
C909        C  0.87237348  0.13553774  0.38741523     0.06800
C910        C  0.88870314  0.12171586  0.38871742     0.04900
H911        H  0.87322105  0.16977080  0.38746224     0.10000
H912        H  0.88786119  0.10496286  0.38806306     0.08900
N913        N  0.65693878  0.19668764  0.09886225    -0.25500
N914        N  0.65712358  0.19107093  0.07911583    -0.33400
C915        C  0.65884413  0.20813943  0.06719234     0.02800
C916        C  0.65974173  0.22518419  0.08013805     0.08800
C917        C  0.65853035  0.21745642  0.10006145    -0.04300
H918        H  0.65973967  0.20807674  0.05042143     0.09500
H919        H  0.65917825  0.22620244  0.11438407     0.10700
Cu920      Cu  0.65580942  0.16037303  0.06955993     0.44200
Cu921      Cu  0.65575554  0.17582053  0.12329957     0.42000
Cu922      Cu  0.65493700  0.12116271  0.11041565     0.43900
N923        N  0.65450525  0.12869003  0.06408124    -0.32900
N924        N  0.65412580  0.11443304  0.07886956    -0.27200
C925        C  0.65336656  0.09552546  0.07002718    -0.03300
C926        C  0.65326394  0.09811959  0.04876866     0.08900
C927        C  0.65400363  0.11924058  0.04546716     0.02700
H928        H  0.65300674  0.08101426  0.07846265     0.10400
H929        H  0.65423168  0.12718217  0.03067233     0.09500
N930        N  0.65655078  0.13234041  0.14064139    -0.34400
N931        N  0.65672498  0.15234407  0.14525581    -0.26600
C932        C  0.65852501  0.15458032  0.16593387    -0.01800
C933        C  0.65949869  0.13508208  0.17468389     0.06800
C934        C  0.65824445  0.12130074  0.15831218     0.04900
H935        H  0.65947638  0.16931719  0.17392403     0.10000
H936        H  0.65889486  0.10454577  0.15911135     0.08900
N937        N  0.69721256  0.35406479  0.05839176    -0.25500
N938        N  0.67737520  0.35923687  0.05723174    -0.33400
C939        C  0.66574302  0.34192335  0.05845989     0.02800
C940        C  0.67897330  0.32519299  0.06044227     0.08800
C941        C  0.69875685  0.33335529  0.06038229    -0.04300
H942        H  0.64895231  0.34161164  0.05827637     0.09500
H943        H  0.71319740  0.32494654  0.06204919     0.10700
Cu944      Cu  0.66719601  0.38968422  0.05485883     0.44200
Cu945      Cu  0.72129199  0.37537622  0.05831957     0.42000
Cu946      Cu  0.70725240  0.42960967  0.05591543     0.43900
N947        N  0.66116491  0.42126471  0.05326871    -0.32900
N948        N  0.67569301  0.43578691  0.05362152    -0.27200
C949        C  0.66655957  0.45454360  0.05265926    -0.03300
C950        C  0.64537345  0.45157455  0.05165321     0.08900
C951        C  0.64242253  0.43039094  0.05207900     0.02700
H952        H  0.67474124  0.46920300  0.05286430     0.10400
H953        H  0.62776898  0.42219307  0.05172949     0.09500
N954        N  0.73760015  0.41920893  0.05908456    -0.34400
N955        N  0.74268192  0.39933714  0.05986777    -0.26600
C956        C  0.76332735  0.39766163  0.06249531    -0.01800
C957        C  0.77154382  0.41740074  0.06337949     0.06800
C958        C  0.75490860  0.43072712  0.06120229     0.04900
H959        H  0.77164973  0.38315489  0.06396779     0.10000
H960        H  0.75528091  0.44750845  0.06142675     0.08900
N961        N  0.69724480  0.11586967  0.30430401    -0.25500
N962        N  0.67738021  0.11585504  0.30951914    -0.33400
C963        C  0.66578748  0.11739115  0.29219544     0.02800
C964        C  0.67904967  0.11838630  0.27539278     0.08800
C965        C  0.69883134  0.11740930  0.28353772    -0.04300
H966        H  0.64900856  0.11806485  0.29191846     0.09500
H967        H  0.71331706  0.11814067  0.27506735     0.10700
Cu968      Cu  0.66708093  0.11453104  0.34001310     0.44200
Cu969      Cu  0.72134474  0.11494866  0.32567006     0.42000
Cu970      Cu  0.70706176  0.11478004  0.37995664     0.43900
N971        N  0.66093597  0.11358237  0.37161748    -0.32900
N972        N  0.67547163  0.11367271  0.38613901    -0.27200
C973        C  0.66634196  0.11304962  0.40491310    -0.03300
C974        C  0.64514619  0.11253477  0.40196587     0.08900
C975        C  0.64217518  0.11289982  0.38077033     0.02700
H976        H  0.67454415  0.11303337  0.41956970     0.10400
H977        H  0.62751053  0.11274184  0.37258344     0.09500
N978        N  0.73753394  0.11621328  0.36961355    -0.34400
N979        N  0.74272779  0.11613316  0.34974342    -0.26600
C980        C  0.76348623  0.11774480  0.34812574    -0.01800
C981        C  0.77164705  0.11886989  0.36789263     0.06800
C982        C  0.75486348  0.11788514  0.38117872     0.04900
H983        H  0.77194060  0.11840468  0.33362739     0.10000
H984        H  0.75515749  0.11863686  0.39795451     0.08900
N985        N  0.98916461  0.35427952  0.34994611    -0.25500
N986        N  0.99037163  0.35943093  0.36978671    -0.33400
C987        C  0.98914777  0.34210667  0.38140084     0.02800
C988        C  0.98711833  0.32538957  0.36815592     0.08800
C989        C  0.98714676  0.33357293  0.34838152    -0.04300
H990        H  0.98935240  0.34178000  0.39819156     0.09500
H991        H  0.98542902  0.32518166  0.33393503     0.10700
Cu992      Cu  0.99275962  0.38987383  0.37998897     0.44200
Cu993      Cu  0.98919743  0.37562605  0.32590061     0.42000
Cu994      Cu  0.99166818  0.42985693  0.33999033     0.43900
N995        N  0.99430277  0.42145192  0.38606113    -0.32900
N996        N  0.99393836  0.43599103  0.37155298    -0.27200
C997        C  0.99484370  0.45473890  0.38071103    -0.03300
C998        C  0.99582346  0.45174761  0.40189251     0.08900
C999        C  0.99544208  0.43056023  0.40481676     0.02700
H1000       H  0.99460474  0.46940767  0.37254877     0.10400
H1001       H  0.99577514  0.42234774  0.41946116     0.09500
N1002       N  0.98849230  0.41948052  0.30964074    -0.34400
N1003       N  0.98767718  0.39961320  0.30454193    -0.26600
C1004       C  0.98504629  0.39795688  0.28389600    -0.01800
C1005       C  0.98419418  0.41770294  0.27569889     0.06800
C1006       C  0.98639282  0.43101491  0.29234413     0.04900
H1007       H  0.98354862  0.38345882  0.27556039     0.10000
H1008       H  0.98619204  0.44779710  0.29198770     0.08900
N1009       N  0.19735862  0.44174724  0.14686053    -0.25500
N1010       N  0.17747901  0.44286673  0.14183321    -0.33400
C1011       C  0.16596792  0.44105453  0.15918840     0.02800
C1012       C  0.17931170  0.43872049  0.17579806     0.08800
C1013       C  0.19904574  0.43919942  0.16751394    -0.04300
H1014       H  0.14917846  0.44103048  0.15959715     0.09500
H1015       H  0.21355011  0.43738989  0.17578679     0.10700
Cu1016     Cu  0.16707126  0.44579300  0.11146132     0.44200
Cu1017     Cu  0.22130043  0.44244759  0.12536905     0.42000
Cu1018     Cu  0.20694111  0.44530859  0.07122806     0.43900
N1019       N  0.16086781  0.44777127  0.07988464    -0.32900
N1020       N  0.17533662  0.44758770  0.06529077    -0.27200
C1021       C  0.16613821  0.44880716  0.04657563    -0.03300
C1022       C  0.14496996  0.44982132  0.04962179     0.08900
C1023       C  0.14208932  0.44911220  0.07082812     0.02700
H1024       H  0.17427066  0.44879565  0.03188036     0.10400
H1025       H  0.12746476  0.44938714  0.07908244     0.09500
N1026       N  0.23737948  0.44226517  0.08139926    -0.34400
N1027       N  0.24257093  0.44133180  0.10124624    -0.26600
C1028       C  0.26322569  0.43870731  0.10278529    -0.01800
C1029       C  0.27133935  0.43798132  0.08298866     0.06800
C1030       C  0.25462798  0.44025266  0.06976080     0.04900
H1031       H  0.27161710  0.43704216  0.11723838     0.10000
H1032       H  0.25489790  0.44008211  0.05296930     0.08900
N1033       N  0.48597479  0.19645654  0.09870242    -0.25500
N1034       N  0.48584692  0.19079469  0.07896915    -0.33400
C1035       C  0.48410558  0.20783407  0.06700331     0.02800
C1036       C  0.48313387  0.22491086  0.07990751     0.08800
C1037       C  0.48432462  0.21722496  0.09985106    -0.04300
H1038       H  0.48324348  0.20773006  0.05023087     0.09500
H1039       H  0.48362178  0.22600001  0.11415392     0.10700
Cu1040     Cu  0.48723880  0.16005963  0.06951586     0.44200
Cu1041     Cu  0.48715017  0.17562258  0.12317580     0.42000
Cu1042     Cu  0.48806450  0.12089407  0.11044568     0.43900
N1043       N  0.48850225  0.12835637  0.06410081    -0.32900
N1044       N  0.48886739  0.11411714  0.07890752    -0.27200
C1045       C  0.48954364  0.09519423  0.07008745    -0.03300
C1046       C  0.48960437  0.09776070  0.04882400     0.08900
C1047       C  0.48892918  0.11887969  0.04549898     0.02700
H1048       H  0.48985215  0.08069256  0.07854022     0.10400
H1049       H  0.48867170  0.12680190  0.03069438     0.09500
N1050       N  0.48634652  0.13217163  0.14063011    -0.34400
N1051       N  0.48613734  0.15218971  0.14518449    -0.26600
C1052       C  0.48428218  0.15448404  0.16585145    -0.01800
C1053       C  0.48330701  0.13501114  0.17465665     0.06800
C1054       C  0.48461903  0.12118251  0.15832989     0.04900
H1055       H  0.48330841  0.16924322  0.17379719     0.10000
H1056       H  0.48399863  0.10442896  0.15917926     0.08900
N1057       N  0.19490064  0.19678329  0.38983740    -0.25500
N1058       N  0.17514444  0.19119850  0.38974701    -0.33400
C1059       C  0.16324096  0.20828490  0.38805807     0.02800
C1060       C  0.17621093  0.22530764  0.38708256     0.08800
C1061       C  0.19612660  0.21754795  0.38821560    -0.04300
H1062       H  0.14646615  0.20824970  0.38724802     0.09500
H1063       H  0.21046026  0.22627014  0.38750655     0.10700
Cu1064     Cu  0.16554787  0.16051612  0.39115754     0.44200
Cu1065     Cu  0.21931404  0.17588276  0.39096155     0.42000
Cu1066     Cu  0.20636956  0.12125797  0.39191651     0.43900
N1067       N  0.16005041  0.12883588  0.39247356    -0.32900
N1068       N  0.17482891  0.11456766  0.39281035    -0.27200
C1069       C  0.16597897  0.09566482  0.39354784    -0.03300
C1070       C  0.14472462  0.09827311  0.39368083     0.08900
C1071       C  0.14143205  0.11939646  0.39298139     0.02700
H1072       H  0.17440645  0.08114821  0.39385250     0.10400
H1073       H  0.12664071  0.12734546  0.39276468     0.09500
N1074       N  0.23659603  0.13238157  0.39018017    -0.34400
N1075       N  0.24123952  0.15237728  0.38995233    -0.26600
C1076       C  0.26191754  0.15457542  0.38810716    -0.01800
C1077       C  0.27063211  0.13505936  0.38715999     0.06800
C1078       C  0.25424331  0.12130805  0.38847703     0.04900
H1079       H  0.26993269  0.16929677  0.38712984     0.10000
H1080       H  0.25501558  0.10454930  0.38788405     0.08900
N1081       N  0.40029975  0.11565771  0.34977133    -0.25500
N1082       N  0.40549026  0.11579464  0.36964090    -0.33400
C1083       C  0.38814844  0.11736378  0.38120263     0.02800
C1084       C  0.37136123  0.11821753  0.36791214     0.08800
C1085       C  0.37953244  0.11712678  0.34814814    -0.04300
H1086       H  0.38784802  0.11815264  0.39797632     0.09500
H1087       H  0.37107904  0.11773652  0.33364771     0.10700
Cu1088     Cu  0.43597411  0.11457949  0.37997132     0.44200
Cu1089     Cu  0.42169711  0.11463746  0.32571022     0.42000
Cu1090     Cu  0.47597582  0.11449414  0.34002724     0.43900
N1091       N  0.46756580  0.11355049  0.38615139    -0.32900
N1092       N  0.48210724  0.11351059  0.37163438    -0.27200
C1093       C  0.50086540  0.11284250  0.38079320    -0.03300
C1094       C  0.49788536  0.11243311  0.40198701     0.08900
C1095       C  0.47668828  0.11290783  0.40492750     0.02700
H1096       H  0.51553314  0.11272186  0.37261227     0.10400
H1097       H  0.46847969  0.11284620  0.41958080     0.09500
N1098       N  0.46564967  0.11583282  0.30954187    -0.34400
N1099       N  0.44578137  0.11574728  0.30434249    -0.26600
C1100       C  0.44416792  0.11731367  0.28358144    -0.01800
C1101       C  0.46393586  0.11841367  0.27542149     0.06800
C1102       C  0.47721936  0.11746178  0.29220997     0.04900
H1103       H  0.42967147  0.11796877  0.27512513     0.10000
H1104       H  0.49399438  0.11821664  0.29191758     0.08900
N1105       N  0.15468799  0.35430266  0.34989290    -0.25500
N1106       N  0.15350543  0.35943528  0.36974023    -0.33400
C1107       C  0.15469190  0.34209756  0.38133729     0.02800
C1108       C  0.15667192  0.32539034  0.36807452     0.08800
C1109       C  0.15665270  0.33359276  0.34830782    -0.04300
H1110       H  0.15447882  0.34175343  0.39812732     0.09500
H1111       H  0.15832392  0.32520935  0.33385175     0.10700
Cu1112     Cu  0.15114816  0.38986140  0.37997989     0.44200
Cu1113     Cu  0.15464332  0.37566844  0.32585596     0.42000
Cu1114     Cu  0.15220670  0.42986647  0.33999607     0.43900
N1115       N  0.14954951  0.42142832  0.38606114    -0.32900
N1116       N  0.14990575  0.43597391  0.37155935    -0.27200
C1117       C  0.14892836  0.45471451  0.38072204    -0.03300
C1118       C  0.14791044  0.45171004  0.40189851     0.08900
C1119       C  0.14834302  0.43052435  0.40481755     0.02700
H1120       H  0.14913038  0.46938722  0.37256562     0.10400
H1121       H  0.14798652  0.42230494  0.41945757     0.09500
N1122       N  0.15529392  0.41953387  0.30962398    -0.34400
N1123       N  0.15609221  0.39967264  0.30450081    -0.26600
C1124       C  0.15862993  0.39804199  0.28383980    -0.01800
C1125       C  0.15943937  0.41779902  0.27565869     0.06800
C1126       C  0.15731163  0.43108962  0.29233101     0.04900
H1127       H  0.16008535  0.38355380  0.27547982     0.10000
H1128       H  0.15749569  0.44787233  0.29199284     0.08900
N1129       N  0.44549649  0.35374611  0.05786368    -0.25500
N1130       N  0.46533105  0.35893513  0.05670371    -0.33400
C1131       C  0.47697563  0.34163210  0.05797257     0.02800
C1132       C  0.46376041  0.32488697  0.05998308     0.08800
C1133       C  0.44396924  0.33303606  0.05989540    -0.04300
H1134       H  0.49376707  0.34133761  0.05780290     0.09500
H1135       H  0.42953475  0.32461757  0.06157483     0.10700
Cu1136     Cu  0.47548956  0.38940330  0.05430321     0.44200
Cu1137     Cu  0.42139987  0.37505277  0.05774387     0.42000
Cu1138     Cu  0.43542250  0.42931312  0.05532797     0.43900
N1139       N  0.48151829  0.42100043  0.05275420    -0.32900
N1140       N  0.46698002  0.43551081  0.05309188    -0.27200
C1141       C  0.47610074  0.45427770  0.05219106    -0.03300
C1142       C  0.49729137  0.45133388  0.05124410     0.08900
C1143       C  0.50025807  0.43014963  0.05163861     0.02700
H1144       H  0.46790639  0.46892905  0.05241120     0.10400
H1145       H  0.51492001  0.42196799  0.05133020     0.09500
N1146       N  0.40507725  0.41889484  0.05846019    -0.34400
N1147       N  0.39999992  0.39902029  0.05924317    -0.26600
C1148       C  0.37934904  0.39734094  0.06183490    -0.01800
C1149       C  0.37112509  0.41707779  0.06269725     0.06800
C1150       C  0.38776277  0.43040840  0.06054472     0.04900
H1151       H  0.37102589  0.38283223  0.06329791     0.10000
H1152       H  0.38738765  0.44718989  0.06076142     0.08900
O1153       O  0.54916903  0.54656269  0.03212375    -0.71200
O1154       O  0.59338239  0.50255117  0.03277581    -0.72200
O1155       O  0.54922000  0.50248585  0.03267070    -0.60800
O1156       O  0.59331366  0.54661965  0.03222585    -0.69200
O1157       O  0.59318968  0.54699629  0.06672936    -0.68800
O1158       O  0.54916612  0.50292271  0.06717287    -0.60000
O1159       O  0.59327594  0.50299588  0.06727807    -0.72500
O1160       O  0.54913122  0.54693074  0.06662723    -0.71300
Cu1161     Cu  0.57127348  0.52453325  0.03122162     1.04600
Cu1162     Cu  0.57118704  0.52497176  0.06815898     1.04300
C1163       C  0.54224157  0.55361287  0.04930014     0.95000
C1164       C  0.60027476  0.49594494  0.05013926     0.94100
C1165       C  0.54227153  0.49584856  0.05000045     0.86300
C1166       C  0.60014458  0.55369022  0.04943201     0.92600
O1167       O  0.12894583  0.50251857  0.45397890    -0.71200
O1168       O  0.12814929  0.54647000  0.49822122    -0.72200
O1169       O  0.12810596  0.54657604  0.45407503    -0.60800
O1170       O  0.12900068  0.50240584  0.49813374    -0.69200
O1171       O  0.16349887  0.50307485  0.49806637    -0.68800
O1172       O  0.16260603  0.54718305  0.45408795    -0.60000
O1173       O  0.16265055  0.54707486  0.49815094    -0.72500
O1174       O  0.16344602  0.50319262  0.45396139    -0.71300
Cu1175     Cu  0.12732347  0.52446400  0.47610424     1.04600
Cu1176     Cu  0.16425803  0.52515107  0.47606594     1.04300
C1177       C  0.14632822  0.49603370  0.44702218     0.95000
C1178       C  0.14529802  0.55362462  0.50510531     0.94100
C1179       C  0.14524289  0.55376238  0.44718916     0.86300
C1180       C  0.14639935  0.49587776  0.50501407     0.92600
O1181       O  0.54948518  0.12873412  0.45363278    -0.71200
O1182       O  0.59352430  0.12877825  0.49765300    -0.72200
O1183       O  0.59351882  0.12878087  0.45362072    -0.60800
O1184       O  0.54949771  0.12873097  0.49766169    -0.69200
O1185       O  0.54949999  0.09423865  0.49768568    -0.68800
O1186       O  0.59358227  0.09428921  0.45358365    -0.60000
O1187       O  0.59358727  0.09428610  0.49767697    -0.72500
O1188       O  0.54948632  0.09424227  0.45359479    -0.71300
Cu1189     Cu  0.57150549  0.12996469  0.47564197     1.04600
Cu1190     Cu  0.57154041  0.09303592  0.47563482     1.04300
C1191       C  0.54259872  0.11149805  0.44673254     0.95000
C1192       C  0.60043843  0.11155452  0.50454930     0.94100
C1193       C  0.60043380  0.11155872  0.44671648     0.86300
C1194       C  0.54261760  0.11149293  0.50455932     0.92600
O1195       O  0.01489049  0.54678939  0.45408060    -0.71200
O1196       O  0.01436115  0.50261190  0.49814148    -0.72200
O1197       O  0.01441065  0.50272051  0.45397931    -0.60800
O1198       O  0.01484774  0.54668589  0.49822801    -0.69200
O1199       O  0.98034331  0.54700109  0.49816004    -0.68800
O1200       O  0.97990698  0.50310726  0.45396652    -0.60000
O1201       O  0.97985915  0.50299124  0.49807861    -0.72500
O1202       O  0.98038693  0.54710874  0.45409593    -0.71300
Cu1203     Cu  0.01585443  0.52468303  0.47610910     1.04600
Cu1204     Cu  0.97891656  0.52506105  0.47607447     1.04300
C1205       C  0.99769560  0.55383557  0.44719812     0.95000
C1206       C  0.99701788  0.49593952  0.50502705     0.94100
C1207       C  0.99708139  0.49609034  0.44702287     0.86300
C1208       C  0.99764103  0.55369924  0.50511232     0.92600
O1209       O  0.59350357  0.93246585  0.49726370    -0.71200
O1210       O  0.54950705  0.93238621  0.45323149    -0.72200
O1211       O  0.59351834  0.93248589  0.45325193    -0.60800
O1212       O  0.54948619  0.93236662  0.49724968    -0.69200
O1213       O  0.54937348  0.96685904  0.49730468    -0.68800
O1214       O  0.59348455  0.96697902  0.45322883    -0.60000
O1215       O  0.54939265  0.96687878  0.45320810    -0.72500
O1216       O  0.59346789  0.96695872  0.49731988    -0.71300
Cu1217     Cu  0.57150623  0.93121867  0.47524875     1.04600
Cu1218     Cu  0.57142673  0.96814895  0.47526644     1.04300
C1219       C  0.60036740  0.94970523  0.50417507     0.95000
C1220       C  0.54257218  0.94959934  0.44633210     0.94100
C1221       C  0.60038571  0.94973010  0.44636032     0.86300
C1222       C  0.54254441  0.94957529  0.50415785     0.92600
O1223       O  0.54916229  0.54712602  0.88456078    -0.71200
O1224       O  0.59327800  0.50317218  0.88373836    -0.72200
O1225       O  0.54917516  0.50312598  0.88381311    -0.60800
O1226       O  0.59322973  0.54716473  0.88448781    -0.69200
O1227       O  0.59332884  0.54663638  0.91898930    -0.68800
O1228       O  0.54920524  0.50254064  0.91831352    -0.60000
O1229       O  0.59335762  0.50257837  0.91823920    -0.72500
O1230       O  0.54917754  0.54660666  0.91906257    -0.71300
Cu1231     Cu  0.57120849  0.52516462  0.88294237     1.04600
Cu1232     Cu  0.57126861  0.52456532  0.91987822     1.04300
C1233       C  0.54225796  0.55372758  0.90191452     0.95000
C1234       C  0.60025519  0.49604169  0.90085078     0.94100
C1235       C  0.54226801  0.49598031  0.90094941     0.86300
C1236       C  0.60018455  0.55377039  0.90182037     0.92600
O1237       O  0.09345583  0.00222741  0.41188023    -0.71200
O1238       O  0.04938194  0.04632150  0.41169156    -0.72200
O1239       O  0.04941975  0.00221325  0.41184243    -0.60800
O1240       O  0.09347192  0.04633737  0.41172493    -0.69200
O1241       O  0.09348090  0.04619854  0.37721899    -0.68800
O1242       O  0.04946495  0.00210817  0.37733544    -0.60000
O1243       O  0.04942198  0.04618593  0.37718602    -0.72500
O1244       O  0.09347054  0.00212076  0.37737353    -0.71300
Cu1245     Cu  0.07143156  0.02428713  0.41300709     1.04600
Cu1246     Cu  0.07146089  0.02415689  0.37606507     1.04300
C1247       C  0.10029409  0.99523468  0.39464901     0.95000
C1248       C  0.04252140  0.05314697  0.39440312     0.94100
C1249       C  0.04261441  0.99521841  0.39459876     0.86300
C1250       C  0.10035105  0.05316677  0.39444450     0.92600
O1251       O  0.09344784  0.00153628  0.57351892    -0.71200
O1252       O  0.04943558  0.04564095  0.57368824    -0.72200
O1253       O  0.04943750  0.00156605  0.57354343    -0.60800
O1254       O  0.09350066  0.04560899  0.57366784    -0.69200
O1255       O  0.09350312  0.04573664  0.53916197    -0.68800
O1256       O  0.04940338  0.00165830  0.53903648    -0.60000
O1257       O  0.04940670  0.04576510  0.53918303    -0.72500
O1258       O  0.09344669  0.00163056  0.53901237    -0.71300
Cu1259     Cu  0.07145602  0.02359170  0.57481772     1.04600
Cu1260     Cu  0.07143932  0.02370928  0.53787599     1.04300
C1261       C  0.10027902  0.99464427  0.55624712     0.95000
C1262       C  0.04254210  0.05259907  0.55646862     0.94100
C1263       C  0.04258181  0.99468038  0.55627955     0.86300
C1264       C  0.10038792  0.05256055  0.55644346     0.92600
O1265       O  0.50752425  0.04579681  0.99756696    -0.71200
O1266       O  0.50764154  0.00170362  0.95346856    -0.72200
O1267       O  0.50759407  0.04580467  0.95347418    -0.60800
O1268       O  0.50758121  0.00168521  0.99750938    -0.69200
O1269       O  0.47307427  0.00165452  0.99744505    -0.68800
O1270       O  0.47308747  0.04575486  0.95343968    -0.60000
O1271       O  0.47313486  0.00168410  0.95343514    -0.72500
O1272       O  0.47301906  0.04573732  0.99750524    -0.71300
Cu1273     Cu  0.50880727  0.02375730  0.97550753     1.04600
Cu1274     Cu  0.47186532  0.02371415  0.97545545     1.04300
C1275       C  0.49024600  0.05265905  0.00442145     0.95000
C1276       C  0.49039630  0.99476254  0.94661055     0.94100
C1277       C  0.49033729  0.05267177  0.94657818     0.86300
C1278       C  0.49031922  0.99472464  0.00430132     0.92600
O1279       O  0.04921610  0.43423232  0.95393796    -0.71200
O1280       O  0.09327063  0.43424657  0.99798240    -0.72200
O1281       O  0.04922529  0.43424981  0.99797906    -0.60800
O1282       O  0.09326972  0.43422997  0.95392451    -0.69200
O1283       O  0.09332583  0.46871669  0.95386109    -0.68800
O1284       O  0.04918011  0.46873747  0.99801815    -0.60000
O1285       O  0.09332598  0.46873359  0.99802115    -0.72500
O1286       O  0.04916808  0.46871940  0.95387457    -0.71300
Cu1287     Cu  0.07124701  0.43303894  0.97595530     1.04600
Cu1288     Cu  0.07125201  0.46995861  0.97594248     1.04300
C1289       C  0.04229126  0.45144611  0.94702425     0.95000
C1290       C  0.10018226  0.45146656  0.00490118     0.94100
C1291       C  0.04231038  0.45147095  0.00488769     0.86300
C1292       C  0.10018662  0.45144323  0.94699729     0.92600
O1293       O  0.63491586  0.04621339  0.95345707    -0.71200
O1294       O  0.63476653  0.00209606  0.99749829    -0.72200
O1295       O  0.63499910  0.04621164  0.99754715    -0.60800
O1296       O  0.63469038  0.00211000  0.95346052    -0.69200
O1297       O  0.66919710  0.00195717  0.95341445    -0.68800
O1298       O  0.66950411  0.04601375  0.99746905    -0.60000
O1299       O  0.66927317  0.00193220  0.99741940    -0.72500
O1300       O  0.66942215  0.04602492  0.95341468    -0.71300
Cu1301     Cu  0.63362007  0.02417157  0.97549414     1.04600
Cu1302     Cu  0.67056204  0.02398344  0.97542823     1.04300
C1303       C  0.65220073  0.05301393  0.94656056     0.95000
C1304       C  0.65200312  0.99506799  0.00428175     0.94100
C1305       C  0.65230951  0.05301034  0.00438633     0.86300
C1306       C  0.65190551  0.99510059  0.94659939     0.92600
O1307       O  0.04911372  0.61071738  0.95413559    -0.71200
O1308       O  0.09321087  0.61067640  0.99823519    -0.72200
O1309       O  0.09321182  0.61068841  0.95413683    -0.60800
O1310       O  0.04911150  0.61070726  0.99823624    -0.69200
O1311       O  0.04903926  0.57622617  0.99826701    -0.68800
O1312       O  0.09323746  0.57620703  0.95406944    -0.60000
O1313       O  0.09323230  0.57619486  0.99826598    -0.72500
O1314       O  0.04903880  0.57623623  0.95407026    -0.71300
Cu1315     Cu  0.07116358  0.61189640  0.97618573     1.04600
Cu1316     Cu  0.07113660  0.57498760  0.97616741     1.04300
C1317       C  0.04217346  0.59350930  0.94720441     0.95000
C1318       C  0.10011822  0.59345300  0.00515426     0.94100
C1319       C  0.10012493  0.59347220  0.94720234     0.86300
C1320       C  0.04217421  0.59349313  0.00515268     0.92600
C1321       C  0.52641178  0.48020734  0.05020892    -0.11500
C1322       C  0.51308131  0.46707531  0.05058208    -0.13100
C1323       C  0.14713064  0.46739766  0.41772333    -0.11500
C1324       C  0.14665806  0.48047047  0.43110104    -0.13100
C1325       C  0.51363004  0.11186719  0.41776106    -0.11500
C1326       C  0.52685308  0.11156141  0.43099398    -0.13100
C1327       C  0.12918005  0.08229113  0.39412253    -0.11500
C1328       C  0.11604813  0.06896305  0.39435783    -0.13100
C1329       C  0.34986052  0.12083521  0.37336128    -0.16800
C1330       C  0.33172875  0.12338702  0.37731060     0.07300
C1331       C  0.31042095  0.12681925  0.38128337     0.09200
C1332       C  0.29223571  0.13023321  0.38419884    -0.17600
C1333       C  0.17039026  0.24664950  0.38421995    -0.16800
C1334       C  0.16628387  0.26468289  0.38138066     0.07300
C1335       C  0.16227756  0.28587676  0.37749246     0.09200
C1336       C  0.15943649  0.30395292  0.37358074    -0.17600
C1337       C  0.49016800  0.06843688  0.02014554    -0.11500
C1338       C  0.48997208  0.08175597  0.03329232    -0.13100
C1339       C  0.46932792  0.30346880  0.06284207    -0.16800
C1340       C  0.47330236  0.28541257  0.06575572     0.07300
C1341       C  0.47727559  0.26424105  0.06984071     0.09200
C1342       C  0.48018907  0.24622903  0.07401089    -0.17600
C1343       C  0.48030892  0.13029334  0.19628161    -0.16800
C1344       C  0.47736375  0.12696405  0.21447913     0.07300
C1345       C  0.47336272  0.12359886  0.23579439     0.09200
C1346       C  0.46939748  0.12106310  0.25392608    -0.17600
C1347       C  0.11592203  0.45134678  0.02067635    -0.11500
C1348       C  0.12915809  0.45082162  0.03390729    -0.13100
C1349       C  0.17389394  0.43518687  0.19717145    -0.16800
C1350       C  0.16993800  0.43181583  0.21516486     0.07300
C1351       C  0.16585944  0.42743231  0.23627288     0.09200
C1352       C  0.16275029  0.42329220  0.25427127    -0.17600
C1353       C  0.29266681  0.43437863  0.07743605    -0.16800
C1354       C  0.31063880  0.43098929  0.07339769     0.07300
C1355       C  0.33173654  0.42662249  0.06924474     0.09200
C1356       C  0.34973370  0.42251772  0.06607828    -0.17600
C1357       C  0.99649768  0.46744582  0.41771759    -0.11500
C1358       C  0.99687521  0.48052335  0.43109727    -0.13100
C1359       C  0.62939538  0.11196894  0.41773551    -0.11500
C1360       C  0.61617272  0.11165189  0.43096972    -0.13100
C1361       C  0.62956527  0.46728702  0.05088583    -0.11500
C1362       C  0.61619274  0.48036957  0.05042817    -0.13100
C1363       C  0.65276209  0.08213132  0.03322637    -0.11500
C1364       C  0.65246694  0.06880432  0.02009098    -0.13100
C1365       C  0.67354887  0.12100694  0.25390291    -0.16800
C1366       C  0.66953512  0.12354294  0.23578154     0.07300
C1367       C  0.66547828  0.12693516  0.21448053     0.09200
C1368       C  0.66250237  0.13030460  0.19629521    -0.17600
C1369       C  0.66264628  0.24651308  0.07429380    -0.16800
C1370       C  0.66553063  0.26453301  0.07016115     0.07300
C1371       C  0.66947307  0.28570973  0.06612047     0.09200
C1372       C  0.67342544  0.30377197  0.06324780    -0.17600
C1373       C  0.01368434  0.08226418  0.39409715    -0.11500
C1374       C  0.02681288  0.06893253  0.39430397    -0.13100
C1375       C  0.97303762  0.24673685  0.38445611    -0.16800
C1376       C  0.97722563  0.26474534  0.38156907     0.07300
C1377       C  0.98133439  0.28591215  0.37763028     0.09200
C1378       C  0.98426133  0.30396895  0.37368676    -0.17600
C1379       C  0.85075704  0.13081146  0.38437346    -0.16800
C1380       C  0.83256789  0.12747171  0.38138940     0.07300
C1381       C  0.81126294  0.12409298  0.37734681     0.09200
C1382       C  0.79313853  0.12154327  0.37335750    -0.17600
C1383       C  0.02654984  0.45135263  0.02063800    -0.11500
C1384       C  0.01331514  0.45082424  0.03386804    -0.13100
C1385       C  0.98077118  0.42316643  0.25432626    -0.16800
C1386       C  0.97757079  0.42728109  0.23634106     0.07300
C1387       C  0.97339122  0.43164096  0.21525293     0.09200
C1388       C  0.96935180  0.43500029  0.19727920    -0.17600
C1389       C  0.84997386  0.43478302  0.07815398    -0.16800
C1390       C  0.83199988  0.43137614  0.07414499     0.07300
C1391       C  0.81091186  0.42697604  0.06998872     0.09200
C1392       C  0.79292487  0.42284911  0.06679956    -0.17600
C1393       C  0.62934592  0.94922811  0.41739728    -0.11500
C1394       C  0.61612555  0.94966895  0.43062437    -0.13100
C1395       C  0.99776346  0.56955986  0.43142145    -0.11500
C1396       C  0.99740736  0.58272134  0.41812120    -0.13100
C1397       C  0.61592305  0.56940993  0.04938592    -0.11500
C1398       C  0.62921824  0.58257607  0.04973236    -0.13100
C1399       C  0.01314213  0.59409874  0.03416704    -0.11500
C1400       C  0.02639441  0.59361361  0.02092735    -0.13100
C1401       C  0.98103518  0.62375929  0.25433010    -0.16800
C1402       C  0.97764984  0.61927110  0.23646320     0.07300
C1403       C  0.97326394  0.61466829  0.21546087     0.09200
C1404       C  0.96911044  0.61126174  0.19751703    -0.17600
C1405       C  0.84973918  0.61126695  0.07811925    -0.16800
C1406       C  0.83179906  0.61467775  0.07395503     0.07300
C1407       C  0.81080517  0.61928918  0.06954054     0.09200
C1408       C  0.79294674  0.62377965  0.06611748    -0.17600
C1409       C  0.02704591  0.97929987  0.39459840    -0.11500
C1410       C  0.01396449  0.96592323  0.39443076    -0.13100
C1411       C  0.85014856  0.92222386  0.38407627    -0.16800
C1412       C  0.83206037  0.92623695  0.38128920     0.07300
C1413       C  0.81083026  0.93026330  0.37741179     0.09200
C1414       C  0.79274689  0.93321675  0.37349611    -0.17600
C1415       C  0.96940765  0.80247704  0.38213180    -0.16800
C1416       C  0.97362910  0.78448093  0.37916767     0.07300
C1417       C  0.97813712  0.76337718  0.37525747     0.09200
C1418       C  0.98160291  0.74537452  0.37146897    -0.17600
C1419       C  0.65211817  0.96574505  0.03289905    -0.11500
C1420       C  0.65198445  0.97913653  0.01983461    -0.13100
C1421       C  0.67317817  0.93285891  0.25402497    -0.16800
C1422       C  0.66921234  0.92991989  0.23595240     0.07300
C1423       C  0.66524488  0.92593216  0.21473560     0.09200
C1424       C  0.66237198  0.92195167  0.19665589    -0.17600
C1425       C  0.67565853  0.74527125  0.06519743    -0.16800
C1426       C  0.67178506  0.76325187  0.06867993     0.07300
C1427       C  0.66774560  0.78432722  0.07320224     0.09200
C1428       C  0.66466064  0.80230233  0.07742455    -0.17600
C1429       C  0.14529901  0.58264001  0.41810518    -0.11500
C1430       C  0.14504751  0.56947828  0.43140675    -0.13100
C1431       C  0.51360596  0.94897479  0.41737331    -0.11500
C1432       C  0.52684020  0.94946844  0.43058614    -0.13100
C1433       C  0.51310744  0.58243604  0.04954232    -0.11500
C1434       C  0.52642886  0.56929743  0.04919282    -0.13100
C1435       C  0.49010824  0.96541587  0.03293343    -0.11500
C1436       C  0.49028109  0.97879773  0.01985928    -0.13100
C1437       C  0.48007614  0.92192104  0.19676767    -0.16800
C1438       C  0.47715197  0.92594313  0.21483165     0.07300
C1439       C  0.47313950  0.92996227  0.23603680     0.09200
C1440       C  0.46917208  0.93290112  0.25411077    -0.17600
C1441       C  0.47745426  0.80205544  0.07777475    -0.16800
C1442       C  0.47433143  0.78407331  0.07361295     0.07300
C1443       C  0.47026691  0.76298628  0.06917341     0.09200
C1444       C  0.46639638  0.74499230  0.06575969    -0.17600
C1445       C  0.11586450  0.97931820  0.39467972    -0.11500
C1446       C  0.12893540  0.96593163  0.39455788    -0.13100
C1447       C  0.29267790  0.92165976  0.38483258    -0.16800
C1448       C  0.31078167  0.92558079  0.38201828     0.07300
C1449       C  0.33201703  0.92952056  0.37808664     0.09200
C1450       C  0.35009310  0.93243402  0.37410965    -0.17600
C1451       C  0.17307003  0.80234818  0.38286866    -0.16800
C1452       C  0.16879772  0.78438543  0.37976607     0.07300
C1453       C  0.16421957  0.76332623  0.37568540     0.09200
C1454       C  0.16069242  0.74535898  0.37177846    -0.17600
C1455       C  0.11587834  0.59355407  0.02094419    -0.11500
C1456       C  0.12910234  0.59403376  0.03420942    -0.13100
C1457       C  0.29248715  0.61067709  0.07834040    -0.16800
C1458       C  0.31044235  0.61408222  0.07423366     0.07300
C1459       C  0.33145262  0.61871509  0.06991480     0.09200
C1460       C  0.34932021  0.62323871  0.06657794    -0.17600
C1461       C  0.16100553  0.62397273  0.25435293    -0.16800
C1462       C  0.16441939  0.61947700  0.23649552     0.07300
C1463       C  0.16884067  0.61483922  0.21551193     0.09200
C1464       C  0.17301284  0.61138836  0.19758314    -0.17600
C1465       C  0.61610240  0.94963625  0.51991725    -0.11500
C1466       C  0.62931476  0.94920647  0.53315332    -0.13100
C1467       C  0.62929087  0.58262587  0.90168063    -0.11500
C1468       C  0.61599042  0.56946284  0.90195024    -0.13100
C1469       C  0.99768814  0.56936202  0.52094531    -0.11500
C1470       C  0.99733833  0.58249830  0.53426877    -0.13100
C1471       C  0.01312686  0.59419391  0.91821058    -0.11500
C1472       C  0.02638709  0.59364951  0.93143850    -0.13100
C1473       C  0.84979518  0.61217914  0.87439524    -0.16800
C1474       C  0.83185456  0.61555676  0.87857366     0.07300
C1475       C  0.81084927  0.62010252  0.88298215     0.09200
C1476       C  0.79296826  0.62452049  0.88636860    -0.17600
C1477       C  0.96908041  0.61155045  0.75487186    -0.16800
C1478       C  0.97319522  0.61490476  0.73690950     0.07300
C1479       C  0.97751043  0.61946156  0.71588273     0.09200
C1480       C  0.98083471  0.62390972  0.69799475    -0.17600
C1481       C  0.65197617  0.96584952  0.91790173    -0.11500
C1482       C  0.65184377  0.97920641  0.93100459    -0.13100
C1483       C  0.66225674  0.92197071  0.75407951    -0.16800
C1484       C  0.66501764  0.92593171  0.73597673     0.07300
C1485       C  0.66887202  0.92990664  0.71473411     0.09200
C1486       C  0.67278522  0.93284438  0.69664834    -0.17600
C1487       C  0.66416433  0.80240132  0.87350486    -0.16800
C1488       C  0.66722442  0.78444216  0.87781842     0.07300
C1489       C  0.67126210  0.76339471  0.88248277     0.09200
C1490       C  0.67516023  0.74544499  0.88610204    -0.17600
C1491       C  0.01387485  0.96544151  0.55645750    -0.11500
C1492       C  0.02698486  0.97878983  0.55628020    -0.13100
C1493       C  0.96890924  0.80218967  0.56957002    -0.16800
C1494       C  0.97312442  0.78421079  0.57263051     0.07300
C1495       C  0.97765609  0.76313423  0.57663722     0.09200
C1496       C  0.98116029  0.74515694  0.58049681    -0.17600
C1497       C  0.84998539  0.92221651  0.56683054    -0.16800
C1498       C  0.83192086  0.92628148  0.56968867     0.07300
C1499       C  0.81070914  0.93034591  0.57361831     0.09200
C1500       C  0.79262874  0.93331707  0.57753076    -0.17600
C1501       C  0.52679948  0.94943792  0.51989256    -0.11500
C1502       C  0.51357249  0.94895989  0.53311439    -0.13100
C1503       C  0.14536154  0.58241380  0.53426663    -0.11500
C1504       C  0.14512149  0.56927905  0.52094155    -0.13100
C1505       C  0.51311004  0.58253404  0.90180178    -0.11500
C1506       C  0.52643372  0.56939761  0.90208640    -0.13100
C1507       C  0.12913704  0.59414058  0.91817514    -0.11500
C1508       C  0.11589819  0.59359650  0.93142405    -0.13100
C1509       C  0.34933278  0.62394610  0.88598694    -0.16800
C1510       C  0.33144509  0.61950128  0.88266573     0.07300
C1511       C  0.31042530  0.61494682  0.87833016     0.09200
C1512       C  0.29247051  0.61158669  0.87419584    -0.17600
C1513       C  0.17308325  0.61159016  0.75480599    -0.16800
C1514       C  0.16894869  0.61497116  0.73685547     0.07300
C1515       C  0.16459748  0.61955111  0.71584465     0.09200
C1516       C  0.16124430  0.62400729  0.69796624    -0.17600
C1517       C  0.12896570  0.96538420  0.55636376    -0.11500
C1518       C  0.11586360  0.97874060  0.55622617    -0.13100
C1519       C  0.29281846  0.92167299  0.56629753    -0.16800
C1520       C  0.31090025  0.92564885  0.56917139     0.07300
C1521       C  0.33212026  0.92963403  0.57313512     0.09200
C1522       C  0.35019657  0.93257725  0.57708669    -0.17600
C1523       C  0.16119190  0.74510931  0.58026616    -0.16800
C1524       C  0.16474679  0.76305378  0.57629329     0.07300
C1525       C  0.16933579  0.78408708  0.57211371     0.09200
C1526       C  0.17359320  0.80203251  0.56890735    -0.17600
C1527       C  0.49021093  0.96553009  0.91788961    -0.11500
C1528       C  0.49038983  0.97887510  0.93100577    -0.13100
C1529       C  0.47784142  0.80217819  0.87312536    -0.16800
C1530       C  0.47475835  0.78421147  0.87738739     0.07300
C1531       C  0.47071549  0.76315215  0.88198623     0.09200
C1532       C  0.46683838  0.74518780  0.88555143    -0.17600
C1533       C  0.46969585  0.93300339  0.69656850    -0.16800
C1534       C  0.47361717  0.93005560  0.71465224     0.07300
C1535       C  0.47751131  0.92603223  0.73588084     0.09200
C1536       C  0.48030913  0.92201374  0.75396670    -0.17600
C1537       C  0.14677099  0.48022078  0.52085626    -0.11500
C1538       C  0.14728114  0.46707722  0.53417070    -0.13100
C1539       C  0.51365555  0.11184415  0.53353248    -0.11500
C1540       C  0.52688127  0.11155080  0.52030389    -0.13100
C1541       C  0.51308502  0.46720773  0.90023728    -0.11500
C1542       C  0.52641043  0.48034143  0.90066244    -0.13100
C1543       C  0.49031281  0.06845136  0.93087038    -0.11500
C1544       C  0.49016827  0.08177892  0.91774114    -0.13100
C1545       C  0.46930446  0.30357828  0.88823323    -0.16800
C1546       C  0.47326700  0.28550439  0.88541084     0.07300
C1547       C  0.47722504  0.26431272  0.88141253     0.09200
C1548       C  0.48013727  0.24629044  0.87728251    -0.17600
C1549       C  0.48014065  0.13050237  0.75492244    -0.16800
C1550       C  0.47720646  0.12717691  0.73672729     0.07300
C1551       C  0.47323859  0.12380487  0.71541506     0.09200
C1552       C  0.46930258  0.12125718  0.69728364    -0.17600
C1553       C  0.11611160  0.06833104  0.55653261    -0.11500
C1554       C  0.12925851  0.08164476  0.55677221    -0.13100
C1555       C  0.17027128  0.24607259  0.56701739    -0.16800
C1556       C  0.16621647  0.26411418  0.56991385     0.07300
C1557       C  0.16230044  0.28532303  0.57386171     0.09200
C1558       C  0.15953509  0.30340619  0.57782307    -0.17600
C1559       C  0.34986025  0.12059382  0.57785154    -0.16800
C1560       C  0.33173045  0.12312668  0.57389521     0.07300
C1561       C  0.31042503  0.12652228  0.56990315     0.09200
C1562       C  0.29223874  0.12989111  0.56695926    -0.17600
C1563       C  0.11593700  0.45130585  0.93123058    -0.11500
C1564       C  0.12916855  0.45075112  0.91799469    -0.13100
C1565       C  0.34972085  0.42275106  0.88499373    -0.16800
C1566       C  0.33171752  0.42691634  0.88194869     0.07300
C1567       C  0.31060992  0.43135832  0.87793426     0.09200
C1568       C  0.29262506  0.43479171  0.87399539    -0.17600
C1569       C  0.17362729  0.43460784  0.75463264    -0.16800
C1570       C  0.16973264  0.43113998  0.73664192     0.07300
C1571       C  0.16575665  0.42667006  0.71552851     0.09200
C1572       C  0.16273646  0.42249706  0.69751969    -0.17600
C1573       C  0.62940653  0.11195521  0.53351604    -0.11500
C1574       C  0.61617759  0.11164388  0.52029109    -0.13100
C1575       C  0.99637850  0.46714145  0.53419735    -0.11500
C1576       C  0.99677775  0.48028506  0.52087733    -0.13100
C1577       C  0.61615474  0.48045471  0.90050526    -0.11500
C1578       C  0.62951701  0.46736650  0.90000962    -0.13100
C1579       C  0.01327751  0.45074871  0.91805886    -0.11500
C1580       C  0.02651230  0.45130863  0.93128936    -0.13100
C1581       C  0.96960996  0.43441005  0.75454748    -0.16800
C1582       C  0.97359588  0.43095765  0.73657565     0.07300
C1583       C  0.97768472  0.42651687  0.71548053     0.09200
C1584       C  0.98080828  0.42237407  0.69748405    -0.17600
C1585       C  0.84998371  0.43516699  0.87329988    -0.16800
C1586       C  0.83199446  0.43172040  0.87720847     0.07300
C1587       C  0.81089343  0.42725020  0.88122708     0.09200
C1588       C  0.79289889  0.42306449  0.88429817    -0.17600
C1589       C  0.01369138  0.08170741  0.55676398    -0.11500
C1590       C  0.02683019  0.06838407  0.55656184    -0.13100
C1591       C  0.98423989  0.30344634  0.57771203    -0.16800
C1592       C  0.98136646  0.28538950  0.57370360     0.07300
C1593       C  0.97731751  0.26421817  0.56968138     0.09200
C1594       C  0.97316099  0.24620968  0.56671624    -0.17600
C1595       C  0.85079334  0.13047152  0.56666133    -0.16800
C1596       C  0.83260314  0.12717855  0.56967797     0.07300
C1597       C  0.81130079  0.12384198  0.57375042     0.09200
C1598       C  0.79317967  0.12131430  0.57775827    -0.17600
C1599       C  0.65229608  0.06880251  0.93086336    -0.11500
C1600       C  0.65253303  0.08213351  0.91773973    -0.13100
C1601       C  0.66256742  0.24656274  0.87696314    -0.16800
C1602       C  0.66547233  0.26458767  0.88106410     0.07300
C1603       C  0.66943008  0.28577712  0.88502872     0.09200
C1604       C  0.67339231  0.30385097  0.88781882    -0.17600
C1605       C  0.66265722  0.13052453  0.75485086    -0.16800
C1606       C  0.66564632  0.12715871  0.73667162     0.07300
C1607       C  0.66969512  0.12376168  0.71537767     0.09200
C1608       C  0.67369315  0.12122148  0.69725805    -0.17600
loop_ 
_geom_bond_atom_site_label_1 
_geom_bond_atom_site_label_2 
_geom_bond_distance 
_geom_bond_site_symmetry_2 
_ccdc_geom_bond_type 
N1            N2   1.323       .  A
N1            C5   1.345       .  A
N1           Cu9   2.072       .  S
N2            C3   1.346       .  A
N2           Cu8   2.074       .  S
C3            C4   1.381       .  A
C3            H6   1.082       .  S
C4            C5   1.379       .  A
C4         C1601   1.438       .  S
C5            H7   1.082       .  S
Cu8          N11   2.074       .  S
Cu9          N19   2.072       .  S
Cu10         N12   2.077       .  S
Cu10         N18   2.078       .  S
N11          N12   1.324       .  A
N11          C15   1.345       .  A
N12          C13   1.346       .  A
C13          C14   1.380       .  A
C13          H16   1.082       .  S
C14          C15   1.379       .  A
C14        C1600   1.437       .  S
C15          H17   1.082       .  S
N18          N19   1.323       .  A
N18          C22   1.347       .  A
N19          C20   1.345       .  A
C20          C21   1.379       .  A
C20          H23   1.082       .  S
C21          C22   1.381       .  A
C21        C1605   1.438       .  S
C22          H24   1.082       .  S
N25          N26   1.323       .  A
N25          C29   1.345       .  A
N25         Cu33   2.072       .  S
N26          C27   1.347       .  A
N26         Cu32   2.075       .  S
C27          C28   1.381       .  A
C27          H30   1.082       .  S
C28          C29   1.379       .  A
C28        C1594   1.438       .  S
C29          H31   1.082       .  S
Cu32         N35   2.075       .  S
Cu33         N43   2.072       .  S
Cu34         N36   2.079       .  S
Cu34         N42   2.079       .  S
N35          N36   1.324       .  A
N35          C39   1.345   1_655  A
N36          C37   1.346       .  A
C37          C38   1.380       .  A
C37          H40   1.082       .  S
C38          C39   1.379   1_655  A
C38        C1589   1.437   1_655  S
C39          H41   1.082       .  S
N42          N43   1.323       .  A
N42          C46   1.347       .  A
N43          C44   1.345       .  A
C44          C45   1.379       .  A
C44          H47   1.082       .  S
C45          C46   1.381       .  A
C45        C1595   1.439       .  S
C46          H48   1.082       .  S
N49          N50   1.323       .  A
N49          C53   1.345       .  A
N49         Cu57   2.073       .  S
N50          C51   1.347       .  A
N50         Cu56   2.077       .  S
C51          C52   1.381       .  A
C51          H54   1.082       .  S
C52          C53   1.379       .  A
C52        C1585   1.439       .  S
C53          H55   1.082       .  S
Cu56         N59   2.077       .  S
Cu57         N67   2.073       .  S
Cu58         N60   2.077       .  S
Cu58         N66   2.077       .  S
N59          N60   1.324       .  A
N59          C63   1.346       .  A
N60          C61   1.346   1_655  A
C61          C62   1.379   1_455  A
C61          H64   1.082       .  S
C62          C63   1.379       .  A
C62        C1579   1.438   1_655  S
C63          H65   1.082       .  S
N66          N67   1.323       .  A
N66          C70   1.347       .  A
N67          C68   1.345       .  A
C68          C69   1.379       .  A
C68          H71   1.082       .  S
C69          C70   1.381       .  A
C69        C1581   1.439       .  S
C70          H72   1.082       .  S
N73          N74   1.323       .  A
N73          C77   1.345       .  A
N73         Cu81   2.073       .  S
N74          C75   1.346       .  A
N74         Cu80   2.077       .  S
C75          C76   1.381       .  A
C75          H78   1.082       .  S
C76          C77   1.379       .  A
C76        C1588   1.438       .  S
C77          H79   1.082       .  S
Cu80         N83   2.077       .  S
Cu81         N91   2.072       .  S
Cu82         N84   2.075       .  S
Cu82         N90   2.075       .  S
N83          N84   1.324       .  A
N83          C87   1.346       .  A
N84          C85   1.345       .  A
C85          C86   1.379       .  A
C85          H88   1.082       .  S
C86          C87   1.380       .  A
C86        C1578   1.437       .  S
C87          H89   1.082       .  S
N90          N91   1.323       .  A
N90          C94   1.346       .  A
N91          C92   1.345       .  A
C92          C93   1.379       .  A
C92          H95   1.082       .  S
C93          C94   1.380       .  A
C93        C1604   1.438       .  S
C94          H96   1.082       .  S
N97          N98   1.323       .  A
N97         C101   1.345       .  A
N97        Cu105   2.073       .  S
N98          C99   1.347       .  A
N98        Cu104   2.076       .  S
C99         C100   1.381       .  A
C99         H102   1.082       .  S
C100        C101   1.379       .  A
C100       C1591   1.438       .  S
C101        H103   1.082       .  S
Cu104       N107   2.076       .  S
Cu105       N115   2.073       .  S
Cu106       N108   2.077       .  S
Cu106       N114   2.077       .  S
N107        N108   1.324       .  A
N107        C111   1.346       .  A
N108        C109   1.346       .  A
C109        C110   1.380       .  A
C109        H112   1.082       .  S
C110        C111   1.379       .  A
C110       C1575   1.438       .  S
C111        H113   1.082       .  S
N114        N115   1.323       .  A
N114        C118   1.346       .  A
N115        C116   1.345       .  A
C116        C117   1.379       .  A
C116        H119   1.082       .  S
C117        C118   1.381       .  A
C117       C1584   1.439       .  S
C118        H120   1.082       .  S
N121        N122   1.323       .  A
N121        C125   1.345       .  A
N121       Cu129   2.075       .  S
N122        C123   1.346       .  A
N122       Cu128   2.075       .  S
C123        C124   1.380       .  A
C123        H126   1.082       .  S
C124        C125   1.379       .  A
C124       C1608   1.438       .  S
C125        H127   1.082       .  S
Cu128       N131   2.074       .  S
Cu129       N139   2.075       .  S
Cu130       N132   2.075       .  S
Cu130       N138   2.075       .  S
N131        N132   1.324       .  A
N131        C135   1.345       .  A
N132        C133   1.345       .  A
C133        C134   1.379       .  A
C133        H136   1.082       .  S
C134        C135   1.379       .  A
C134       C1573   1.436       .  S
C135        H137   1.082       .  S
N138        N139   1.323       .  A
N138        C142   1.346       .  A
N139        C140   1.345       .  A
C140        C141   1.379       .  A
C140        H143   1.082       .  S
C141        C142   1.380       .  A
C141       C1598   1.439       .  S
C142        H144   1.082       .  S
N145        N146   1.323       .  A
N145        C149   1.345       .  A
N145       Cu153   2.073       .  S
N146        C147   1.347       .  A
N146       Cu152   2.077       .  S
C147        C148   1.381       .  A
C147        H150   1.082       .  S
C148        C149   1.379       .  A
C148       C1569   1.439       .  S
C149        H151   1.082       .  S
Cu152       N155   2.077       .  S
Cu153       N163   2.073       .  S
Cu154       N156   2.077       .  S
Cu154       N162   2.077       .  S
N155        N156   1.324       .  A
N155        C159   1.346       .  A
N156        C157   1.346       .  A
C157        C158   1.379       .  A
C157        H160   1.082       .  S
C158        C159   1.379       .  A
C158       C1564   1.438       .  S
C159        H161   1.082       .  S
N162        N163   1.323       .  A
N162        C166   1.347       .  A
N163        C164   1.345       .  A
C164        C165   1.379       .  A
C164        H167   1.082       .  S
C165        C166   1.381       .  A
C165       C1568   1.439       .  S
C166        H168   1.082       .  S
N169        N170   1.323       .  A
N169        C173   1.345       .  A
N169       Cu177   2.072       .  S
N170        C171   1.347       .  A
N170       Cu176   2.075       .  S
C171        C172   1.381       .  A
C171        H174   1.082       .  S
C172        C173   1.379       .  A
C172       C1555   1.438       .  S
C173        H175   1.082       .  S
Cu176       N179   2.075       .  S
Cu177       N187   2.072       .  S
Cu178       N180   2.078       .  S
Cu178       N186   2.078       .  S
N179        N180   1.324       .  A
N179        C183   1.345       .  A
N180        C181   1.346       .  A
C181        C182   1.380       .  A
C181        H184   1.082       .  S
C182        C183   1.379       .  A
C182       C1554   1.437       .  S
C183        H185   1.082       .  S
N186        N187   1.323       .  A
N186        C190   1.347       .  A
N187        C188   1.345       .  A
C188        C189   1.379       .  A
C188        H191   1.082       .  S
C189        C190   1.381       .  A
C189       C1562   1.439       .  S
C190        H192   1.082       .  S
N193        N194   1.323       .  A
N193        C197   1.345       .  A
N193       Cu201   2.072       .  S
N194        C195   1.347       .  A
N194       Cu200   2.074       .  S
C195        C196   1.381       .  A
C195        H198   1.082       .  S
C196        C197   1.379       .  A
C196       C1548   1.438       .  S
C197        H199   1.082       .  S
Cu200       N203   2.075       .  S
Cu201       N211   2.072       .  S
Cu202       N204   2.078       .  S
Cu202       N210   2.078       .  S
N203        N204   1.324       .  A
N203        C207   1.345       .  A
N204        C205   1.346       .  A
C205        C206   1.380       .  A
C205        H208   1.082       .  S
C206        C207   1.379       .  A
C206       C1544   1.437       .  S
C207        H209   1.082       .  S
N210        N211   1.323       .  A
N210        C214   1.347       .  A
N211        C212   1.345       .  A
C212        C213   1.379       .  A
C212        H215   1.082       .  S
C213        C214   1.381       .  A
C213       C1549   1.438       .  S
C214        H216   1.082       .  S
N217        N218   1.323       .  A
N217        C221   1.345       .  A
N217       Cu225   2.073       .  S
N218        C219   1.347       .  A
N218       Cu224   2.076       .  S
C219        C220   1.381       .  A
C219        H222   1.082       .  S
C220        C221   1.379       .  A
C220       C1545   1.438       .  S
C221        H223   1.082       .  S
Cu224       N227   2.076       .  S
Cu225       N235   2.073       .  S
Cu226       N228   2.076       .  S
Cu226       N234   2.076       .  S
N227        N228   1.324       .  A
N227        C231   1.345       .  A
N228        C229   1.346       .  A
C229        C230   1.380       .  A
C229        H232   1.082       .  S
C230        C231   1.379       .  A
C230       C1541   1.437       .  S
C231        H233   1.082       .  S
N234        N235   1.323       .  A
N234        C238   1.346       .  A
N235        C236   1.345       .  A
C236        C237   1.379       .  A
C236        H239   1.082       .  S
C237        C238   1.381       .  A
C237       C1565   1.439       .  S
C238        H240   1.082       .  S
N241        N242   1.323       .  A
N241        C245   1.345       .  A
N241       Cu249   2.075       .  S
N242        C243   1.346       .  A
N242       Cu248   2.075       .  S
C243        C244   1.380       .  A
C243        H246   1.082       .  S
C244        C245   1.379       .  A
C244       C1559   1.439       .  S
C245        H247   1.082       .  S
Cu248       N251   2.075       .  S
Cu249       N259   2.075       .  S
Cu250       N252   2.075       .  S
Cu250       N258   2.075       .  S
N251        N252   1.324       .  A
N251        C255   1.345       .  A
N252        C253   1.345       .  A
C253        C254   1.379       .  A
C253        H256   1.082       .  S
C254        C255   1.379       .  A
C254       C1539   1.436       .  S
C255        H257   1.082       .  S
N258        N259   1.323       .  A
N258        C262   1.346       .  A
N259        C260   1.345       .  A
C260        C261   1.379       .  A
C260        H263   1.082       .  S
C261        C262   1.380       .  A
C261       C1552   1.438       .  S
C262        H264   1.082       .  S
N265        N266   1.323       .  A
N265        C269   1.345       .  A
N265       Cu273   2.073       .  S
N266        C267   1.346       .  A
N266       Cu272   2.077       .  S
C267        C268   1.381       .  A
C267        H270   1.082       .  S
C268        C269   1.379       .  A
C268       C1572   1.439       .  S
C269        H271   1.082       .  S
Cu272       N275   2.077       .  S
Cu273       N283   2.073       .  S
Cu274       N276   2.076       .  S
Cu274       N282   2.076       .  S
N275        N276   1.324       .  A
N275        C279   1.346       .  A
N276        C277   1.346       .  A
C277        C278   1.379       .  A
C277        H280   1.082       .  S
C278        C279   1.380       .  A
C278       C1538   1.437       .  S
C279        H281   1.082       .  S
N282        N283   1.323       .  A
N282        C286   1.347       .  A
N283        C284   1.345       .  A
C284        C285   1.379       .  A
C284        H287   1.082       .  S
C285        C286   1.381       .  A
C285       C1558   1.438       .  S
C286        H288   1.082       .  S
N289        N290   1.323       .  A
N289        C293   1.345       .  A
N289       Cu297   2.075       .  S
N290        C291   1.347       .  A
N290       Cu296   2.076       .  S
C291        C292   1.381       .  A
C291        H294   1.082       .  S
C292        C293   1.380       .  A
C292       C1536   1.440       .  S
C293        H295   1.082       .  S
Cu296       N299   2.076       .  S
Cu297       N307   2.075       .  S
Cu298       N300   2.076       .  S
Cu298       N306   2.076       .  S
N299        N300   1.324       .  A
N299        C303   1.345       .  A
N300        C301   1.346       .  A
C301        C302   1.380       .  A
C301        H304   1.082       .  S
C302        C303   1.379       .  A
C302       C1527   1.437       .  S
C303        H305   1.082       .  S
N306        N307   1.323       .  A
N306        C310   1.346       .  A
N307        C308   1.346       .  A
C308        C309   1.380       .  A
C308        H311   1.082       .  S
C309        C310   1.380       .  A
C309       C1529   1.439       .  S
C310        H312   1.082       .  S
N313        N314   1.323       .  A
N313        C317   1.345       .  A
N313       Cu321   2.075       .  S
N314        C315   1.347       .  A
N314       Cu320   2.076       .  S
C315        C316   1.381       .  A
C315        H318   1.082       .  S
C316        C317   1.379       .  A
C316       C1519   1.439       .  S
C317        H319   1.082       .  S
Cu320       N323   2.076       .  S
Cu321       N331   2.075       .  S
Cu322       N324   2.076       .  S
Cu322       N330   2.076       .  S
N323        N324   1.324       .  A
N323        C327   1.345       .  A
N324        C325   1.346       .  A
C325        C326   1.380       .  A
C325        H328   1.082       .  S
C326        C327   1.379       .  A
C326       C1517   1.437       .  S
C327        H329   1.082       .  S
N330        N331   1.323       .  A
N330        C334   1.346       .  A
N331        C332   1.345       .  A
C332        C333   1.380       .  A
C332        H335   1.082       .  S
C333        C334   1.380       .  A
C333       C1526   1.439       .  S
C334        H336   1.082       .  S
N337        N338   1.323       .  A
N337        C341   1.345       .  A
N337       Cu345   2.071       .  S
N338        C339   1.347       .  A
N338       Cu344   2.078       .  S
C339        C340   1.381       .  A
C339        H342   1.082       .  S
C340        C341   1.379       .  A
C340       C1512   1.439       .  S
C341        H343   1.082       .  S
Cu344       N347   2.079       .  S
Cu345       N355   2.071       .  S
Cu346       N348   2.079       .  S
Cu346       N354   2.079       .  S
N347        N348   1.324       .  A
N347        C351   1.346       .  A
N348        C349   1.346       .  A
C349        C350   1.380       .  A
C349        H352   1.082       .  S
C350        C351   1.380       .  A
C350       C1507   1.439       .  S
C351        H353   1.082       .  S
N354        N355   1.323       .  A
N354        C358   1.347       .  A
N355        C356   1.345       .  A
C356        C357   1.379       .  A
C356        H359   1.082       .  S
C357        C358   1.381       .  A
C357       C1513   1.439       .  S
C358        H360   1.082       .  S
N361        N362   1.323       .  A
N361        C365   1.345       .  A
N361       Cu369   2.074       .  S
N362        C363   1.346       .  A
N362       Cu368   2.075       .  S
C363        C364   1.380       .  A
C363        H366   1.082       .  S
C364        C365   1.380       .  A
C364       C1509   1.439       .  S
C365        H367   1.082       .  S
Cu368       N371   2.075       .  S
Cu369       N379   2.074       .  S
Cu370       N372   2.077       .  S
Cu370       N378   2.077       .  S
N371        N372   1.324       .  A
N371        C375   1.345       .  A
N372        C373   1.346       .  A
C373        C374   1.380       .  A
C373        H376   1.082       .  S
C374        C375   1.379       .  A
C374       C1505   1.437       .  S
C375        H377   1.082       .  S
N378        N379   1.323       .  A
N378        C382   1.347       .  A
N379        C380   1.345       .  A
C380        C381   1.379       .  A
C380        H383   1.082       .  S
C381        C382   1.381       .  A
C381       C1532   1.439       .  S
C382        H384   1.082       .  S
N385        N386   1.323       .  A
N385        C389   1.345       .  A
N385       Cu393   2.074       .  S
N386        C387   1.346       .  A
N386       Cu392   2.075       .  S
C387        C388   1.380       .  A
C387        H390   1.082       .  S
C388        C389   1.380       .  A
C388       C1516   1.439       .  S
C389        H391   1.082       .  S
Cu392       N395   2.075       .  S
Cu393       N403   2.074       .  S
Cu394       N396   2.076       .  S
Cu394       N402   2.076       .  S
N395        N396   1.324       .  A
N395        C399   1.345       .  A
N396        C397   1.346       .  A
C397        C398   1.379       .  A
C397        H400   1.082       .  S
C398        C399   1.379       .  A
C398       C1503   1.437       .  S
C399        H401   1.082       .  S
N402        N403   1.323       .  A
N402        C406   1.347       .  A
N403        C404   1.345       .  A
C404        C405   1.379       .  A
C404        H407   1.082       .  S
C405        C406   1.380       .  A
C405       C1523   1.438       .  S
C406        H408   1.082       .  S
N409        N410   1.323       .  A
N409        C413   1.345       .  A
N409       Cu417   2.075       .  S
N410        C411   1.347       .  A
N410       Cu416   2.076       .  S
C411        C412   1.381       .  A
C411        H414   1.082       .  S
C412        C413   1.380       .  A
C412       C1533   1.440       .  S
C413        H415   1.082       .  S
Cu416       N419   2.076       .  S
Cu417       N427   2.075       .  S
Cu418       N420   2.076       .  S
Cu418       N426   2.076       .  S
N419        N420   1.324       .  A
N419        C423   1.345       .  A
N420        C421   1.345       .  A
C421        C422   1.379       .  A
C421        H424   1.082       .  S
C422        C423   1.379       .  A
C422       C1502   1.436       .  S
C423        H425   1.082       .  S
N426        N427   1.323       .  A
N426        C430   1.347       .  A
N427        C428   1.345       .  A
C428        C429   1.379       .  A
C428        H431   1.082       .  S
C429        C430   1.381       .  A
C429       C1522   1.439       .  S
C430        H432   1.082       .  S
N433        N434   1.323       .  A
N433        C437   1.345       .  A
N433       Cu441   2.075       .  S
N434        C435   1.347       .  A
N434       Cu440   2.076       .  S
C435        C436   1.381       .  A
C435        H438   1.082       .  S
C436        C437   1.380       .  A
C436       C1497   1.439       .  S
C437        H439   1.082       .  S
Cu440       N443   2.076       .  S
Cu441       N451   2.075       .  S
Cu442       N444   2.075       .  S
Cu442       N450   2.075       .  S
N443        N444   1.324       .  A
N443        C447   1.345       .  A
N444        C445   1.346   1_655  A
C445        C446   1.380   1_455  A
C445        H448   1.082       .  S
C446        C447   1.379       .  A
C446       C1491   1.437   1_655  S
C447        H449   1.082       .  S
N450        N451   1.323       .  A
N450        C454   1.346       .  A
N451        C452   1.345       .  A
C452        C453   1.380       .  A
C452        H455   1.082       .  S
C453        C454   1.380       .  A
C453       C1493   1.438       .  S
C454        H456   1.082       .  S
N457        N458   1.323       .  A
N457        C461   1.345       .  A
N457       Cu465   2.075       .  S
N458        C459   1.347       .  A
N458       Cu464   2.076       .  S
C459        C460   1.381       .  A
C459        H462   1.082       .  S
C460        C461   1.379       .  A
C460       C1483   1.439       .  S
C461        H463   1.082       .  S
Cu464       N467   2.076       .  S
Cu465       N475   2.075       .  S
Cu466       N468   2.076       .  S
Cu466       N474   2.076       .  S
N467        N468   1.324       .  A
N467        C471   1.345       .  A
N468        C469   1.346       .  A
C469        C470   1.379       .  A
C469        H472   1.082       .  S
C470        C471   1.379       .  A
C470       C1481   1.437       .  S
C471        H473   1.082       .  S
N474        N475   1.323       .  A
N474        C478   1.346       .  A
N475        C476   1.346       .  A
C476        C477   1.380       .  A
C476        H479   1.082       .  S
C477        C478   1.380       .  A
C477       C1487   1.439       .  S
C478        H480   1.082       .  S
N481        N482   1.323       .  A
N481        C485   1.345       .  A
N481       Cu489   2.072       .  S
N482        C483   1.347       .  A
N482       Cu488   2.079       .  S
C483        C484   1.381       .  A
C483        H486   1.082       .  S
C484        C485   1.379       .  A
C484       C1477   1.439       .  S
C485        H487   1.082       .  S
Cu488       N491   2.079       .  S
Cu489       N499   2.072       .  S
Cu490       N492   2.079       .  S
Cu490       N498   2.078       .  S
N491        N492   1.324       .  A
N491        C495   1.346   1_655  A
N492        C493   1.346       .  A
C493        C494   1.380       .  A
C493        H496   1.082       .  S
C494        C495   1.380   1_655  A
C494       C1471   1.439   1_655  S
C495        H497   1.082       .  S
N498        N499   1.323       .  A
N498        C502   1.347       .  A
N499        C500   1.345       .  A
C500        C501   1.379       .  A
C500        H503   1.082       .  S
C501        C502   1.381       .  A
C501       C1473   1.438       .  S
C502        H504   1.082       .  S
N505        N506   1.323       .  A
N505        C509   1.345       .  A
N505       Cu513   2.074       .  S
N506        C507   1.346       .  A
N506       Cu512   2.075       .  S
C507        C508   1.381       .  A
C507        H510   1.082       .  S
C508        C509   1.380       .  A
C508       C1480   1.439       .  S
C509        H511   1.082       .  S
Cu512       N515   2.075       .  S
Cu513       N523   2.074       .  S
Cu514       N516   2.077       .  S
Cu514       N522   2.077       .  S
N515        N516   1.324       .  A
N515        C519   1.345       .  A
N516        C517   1.346       .  A
C517        C518   1.379       .  A
C517        H520   1.082       .  S
C518        C519   1.379       .  A
C518       C1470   1.437       .  S
C519        H521   1.082       .  S
N522        N523   1.323       .  A
N522        C526   1.347       .  A
N523        C524   1.345       .  A
C524        C525   1.379       .  A
C524        H527   1.082       .  S
C525        C526   1.381       .  A
C525       C1496   1.438       .  S
C526        H528   1.082       .  S
N529        N530   1.323       .  A
N529        C533   1.345       .  A
N529       Cu537   2.074       .  S
N530        C531   1.346       .  A
N530       Cu536   2.075       .  S
C531        C532   1.380       .  A
C531        H534   1.082       .  S
C532        C533   1.380       .  A
C532       C1476   1.438       .  S
C533        H535   1.082       .  S
Cu536       N539   2.075       .  S
Cu537       N547   2.074       .  S
Cu538       N540   2.077       .  S
Cu538       N546   2.077       .  S
N539        N540   1.324       .  A
N539        C543   1.345       .  A
N540        C541   1.346       .  A
C541        C542   1.380       .  A
C541        H544   1.082       .  S
C542        C543   1.379       .  A
C542       C1467   1.437       .  S
C543        H545   1.082       .  S
N546        N547   1.323       .  A
N546        C550   1.347       .  A
N547        C548   1.345       .  A
C548        C549   1.379       .  A
C548        H551   1.082       .  S
C549        C550   1.381       .  A
C549       C1490   1.439       .  S
C550        H552   1.082       .  S
N553        N554   1.323       .  A
N553        C557   1.345       .  A
N553       Cu561   2.075       .  S
N554        C555   1.347       .  A
N554       Cu560   2.076       .  S
C555        C556   1.381       .  A
C555        H558   1.082       .  S
C556        C557   1.379       .  A
C556       C1486   1.439       .  S
C557        H559   1.082       .  S
Cu560       N563   2.076       .  S
Cu561       N571   2.075       .  S
Cu562       N564   2.076       .  S
Cu562       N570   2.076       .  S
N563        N564   1.324       .  A
N563        C567   1.345       .  A
N564        C565   1.346       .  A
C565        C566   1.379       .  A
C565        H568   1.082       .  S
C566        C567   1.379       .  A
C566       C1466   1.436       .  S
C567        H569   1.082       .  S
N570        N571   1.323       .  A
N570        C574   1.347       .  A
N571        C572   1.345       .  A
C572        C573   1.379       .  A
C572        H575   1.082       .  S
C573        C574   1.381       .  A
C573       C1500   1.439       .  S
C574        H576   1.082       .  S
N577        N578   1.323       .  A
N577        C581   1.345       .  A
N577       Cu585   2.071       .  S
N578        C579   1.347       .  A
N578       Cu584   2.079       .  S
C579        C580   1.381       .  A
C579        H582   1.082       .  S
C580        C581   1.379       .  A
C580       C1457   1.439       .  S
C581        H583   1.082       .  S
Cu584       N587   2.079       .  S
Cu585       N595   2.071       .  S
Cu586       N588   2.079       .  S
Cu586       N594   2.078       .  S
N587        N588   1.324       .  A
N587        C591   1.346       .  A
N588        C589   1.346       .  A
C589        C590   1.380       .  A
C589        H592   1.082       .  S
C590        C591   1.380       .  A
C590       C1456   1.439       .  S
C591        H593   1.082       .  S
N594        N595   1.323       .  A
N594        C598   1.347       .  A
N595        C596   1.345       .  A
C596        C597   1.379       .  A
C596        H599   1.082       .  S
C597        C598   1.381       .  A
C597       C1464   1.438       .  S
C598        H600   1.082       .  S
N601        N602   1.323       .  A
N601        C605   1.345       .  A
N601       Cu609   2.075       .  S
N602        C603   1.347       .  A
N602       Cu608   2.076       .  S
C603        C604   1.381       .  A
C603        H606   1.082       .  S
C604        C605   1.379       .  A
C604       C1447   1.439       .  S
C605        H607   1.082       .  S
Cu608       N611   2.076       .  S
Cu609       N619   2.075       .  S
Cu610       N612   2.076       .  S
Cu610       N618   2.076       .  S
N611        N612   1.324       .  A
N611        C615   1.345       .  A
N612        C613   1.346       .  A
C613        C614   1.380       .  A
C613        H616   1.082       .  S
C614        C615   1.379       .  A
C614       C1446   1.437       .  S
C615        H617   1.082       .  S
N618        N619   1.323       .  A
N618        C622   1.346       .  A
N619        C620   1.345       .  A
C620        C621   1.380       .  A
C620        H623   1.082       .  S
C621        C622   1.380       .  A
C621       C1451   1.439       .  S
C622        H624   1.082       .  S
N625        N626   1.323       .  A
N625        C629   1.345       .  A
N625       Cu633   2.075       .  S
N626        C627   1.347       .  A
N626       Cu632   2.076       .  S
C627        C628   1.381       .  A
C627        H630   1.082       .  S
C628        C629   1.380       .  A
C628       C1437   1.439       .  S
C629        H631   1.082       .  S
Cu632       N635   2.076       .  S
Cu633       N643   2.075       .  S
Cu634       N636   2.076       .  S
Cu634       N642   2.076       .  S
N635        N636   1.324       .  A
N635        C639   1.345       .  A
N636        C637   1.346       .  A
C637        C638   1.380       .  A
C637        H640   1.082       .  S
C638        C639   1.379       .  A
C638       C1435   1.437       .  S
C639        H641   1.082       .  S
N642        N643   1.323       .  A
N642        C646   1.346       .  A
N643        C644   1.345       .  A
C644        C645   1.379       .  A
C644        H647   1.082       .  S
C645        C646   1.380       .  A
C645       C1441   1.438       .  S
C646        H648   1.082       .  S
N649        N650   1.323       .  A
N649        C653   1.345       .  A
N649       Cu657   2.074       .  S
N650        C651   1.346       .  A
N650       Cu656   2.075       .  S
C651        C652   1.381       .  A
C651        H654   1.082       .  S
C652        C653   1.380       .  A
C652       C1460   1.439       .  S
C653        H655   1.082       .  S
Cu656       N659   2.075       .  S
Cu657       N667   2.074       .  S
Cu658       N660   2.077       .  S
Cu658       N666   2.077       .  S
N659        N660   1.324       .  A
N659        C663   1.345       .  A
N660        C661   1.346       .  A
C661        C662   1.380       .  A
C661        H664   1.082       .  S
C662        C663   1.379       .  A
C662       C1433   1.437       .  S
C663        H665   1.082       .  S
N666        N667   1.323       .  A
N666        C670   1.347       .  A
N667        C668   1.345       .  A
C668        C669   1.379       .  A
C668        H671   1.082       .  S
C669        C670   1.380       .  A
C669       C1444   1.438       .  S
C670        H672   1.082       .  S
N673        N674   1.323       .  A
N673        C677   1.345       .  A
N673       Cu681   2.075       .  S
N674        C675   1.347       .  A
N674       Cu680   2.076       .  S
C675        C676   1.381       .  A
C675        H678   1.082       .  S
C676        C677   1.379       .  A
C676       C1450   1.439       .  S
C677        H679   1.082       .  S
Cu680       N683   2.076       .  S
Cu681       N691   2.075       .  S
Cu682       N684   2.076       .  S
Cu682       N690   2.076       .  S
N683        N684   1.324       .  A
N683        C687   1.345       .  A
N684        C685   1.346       .  A
C685        C686   1.379       .  A
C685        H688   1.082       .  S
C686        C687   1.379       .  A
C686       C1431   1.436       .  S
C687        H689   1.082       .  S
N690        N691   1.323       .  A
N690        C694   1.347       .  A
N691        C692   1.345       .  A
C692        C693   1.380       .  A
C692        H695   1.082       .  S
C693        C694   1.381       .  A
C693       C1440   1.439       .  S
C694        H696   1.082       .  S
N697        N698   1.323       .  A
N697        C701   1.345       .  A
N697       Cu705   2.074       .  S
N698        C699   1.346       .  A
N698       Cu704   2.075       .  S
C699        C700   1.380       .  A
C699        H702   1.082       .  S
C700        C701   1.380       .  A
C700       C1461   1.439       .  S
C701        H703   1.082       .  S
Cu704       N707   2.075       .  S
Cu705       N715   2.074       .  S
Cu706       N708   2.077       .  S
Cu706       N714   2.077       .  S
N707        N708   1.324       .  A
N707        C711   1.345       .  A
N708        C709   1.346       .  A
C709        C710   1.380       .  A
C709        H712   1.082       .  S
C710        C711   1.379       .  A
C710       C1429   1.437       .  S
C711        H713   1.082       .  S
N714        N715   1.323       .  A
N714        C718   1.347       .  A
N715        C716   1.345       .  A
C716        C717   1.379       .  A
C716        H719   1.082       .  S
C717        C718   1.381       .  A
C717       C1454   1.439       .  S
C718        H720   1.082       .  S
N721        N722   1.323       .  A
N721        C725   1.345       .  A
N721       Cu729   2.074       .  S
N722        C723   1.347       .  A
N722       Cu728   2.076       .  S
C723        C724   1.381       .  A
C723        H726   1.082       .  S
C724        C725   1.379       .  A
C724       C1424   1.439       .  S
C725        H727   1.082       .  S
Cu728       N731   2.076       .  S
Cu729       N739   2.075       .  S
Cu730       N732   2.076       .  S
Cu730       N738   2.076       .  S
N731        N732   1.324       .  A
N731        C735   1.345       .  A
N732        C733   1.346       .  A
C733        C734   1.380       .  A
C733        H736   1.082       .  S
C734        C735   1.379       .  A
C734       C1419   1.437       .  S
C735        H737   1.082       .  S
N738        N739   1.323       .  A
N738        C742   1.346       .  A
N739        C740   1.345       .  A
C740        C741   1.379       .  A
C740        H743   1.082       .  S
C741        C742   1.380       .  A
C741       C1428   1.439       .  S
C742        H744   1.082       .  S
N745        N746   1.323       .  A
N745        C749   1.345       .  A
N745       Cu753   2.075       .  S
N746        C747   1.347       .  A
N746       Cu752   2.076       .  S
C747        C748   1.381       .  A
C747        H750   1.082       .  S
C748        C749   1.380       .  A
C748       C1411   1.439       .  S
C749        H751   1.082       .  S
Cu752       N755   2.076       .  S
Cu753       N763   2.075       .  S
Cu754       N756   2.076       .  S
Cu754       N762   2.076       .  S
N755        N756   1.324       .  A
N755        C759   1.345       .  A
N756        C757   1.346   1_655  A
C757        C758   1.380   1_455  A
C757        H760   1.082       .  S
C758        C759   1.379       .  A
C758       C1410   1.437   1_655  S
C759        H761   1.082       .  S
N762        N763   1.323       .  A
N762        C766   1.346       .  A
N763        C764   1.345       .  A
C764        C765   1.380       .  A
C764        H767   1.082       .  S
C765        C766   1.380       .  A
C765       C1415   1.439       .  S
C766        H768   1.082       .  S
N769        N770   1.323       .  A
N769        C773   1.345       .  A
N769       Cu777   2.072       .  S
N770        C771   1.347       .  A
N770       Cu776   2.079       .  S
C771        C772   1.381       .  A
C771        H774   1.082       .  S
C772        C773   1.379       .  A
C772       C1404   1.439       .  S
C773        H775   1.082       .  S
Cu776       N779   2.079       .  S
Cu777       N787   2.072       .  S
Cu778       N780   2.079       .  S
Cu778       N786   2.079       .  S
N779        N780   1.324       .  A
N779        C783   1.346   1_655  A
N780        C781   1.346       .  A
C781        C782   1.380       .  A
C781        H784   1.082       .  S
C782        C783   1.380   1_655  A
C782       C1399   1.439   1_655  S
C783        H785   1.082       .  S
N786        N787   1.323       .  A
N786        C790   1.347       .  A
N787        C788   1.345       .  A
C788        C789   1.379       .  A
C788        H791   1.082       .  S
C789        C790   1.381       .  A
C789       C1405   1.439       .  S
C790        H792   1.082       .  S
N793        N794   1.323       .  A
N793        C797   1.345       .  A
N793       Cu801   2.074       .  S
N794        C795   1.346       .  A
N794       Cu800   2.075       .  S
C795        C796   1.380       .  A
C795        H798   1.082       .  S
C796        C797   1.380       .  A
C796       C1408   1.439       .  S
C797        H799   1.082       .  S
Cu800       N803   2.075       .  S
Cu801       N811   2.074       .  S
Cu802       N804   2.077       .  S
Cu802       N810   2.077       .  S
N803        N804   1.324       .  A
N803        C807   1.345       .  A
N804        C805   1.346       .  A
C805        C806   1.380       .  A
C805        H808   1.082       .  S
C806        C807   1.379       .  A
C806       C1398   1.437       .  S
C807        H809   1.082       .  S
N810        N811   1.323       .  A
N810        C814   1.347       .  A
N811        C812   1.345       .  A
C812        C813   1.379       .  A
C812        H815   1.082       .  S
C813        C814   1.381       .  A
C813       C1425   1.438       .  S
C814        H816   1.082       .  S
N817        N818   1.323       .  A
N817        C821   1.345       .  A
N817       Cu825   2.074       .  S
N818        C819   1.346       .  A
N818       Cu824   2.075       .  S
C819        C820   1.381       .  A
C819        H822   1.082       .  S
C820        C821   1.380       .  A
C820       C1401   1.439       .  S
C821        H823   1.082       .  S
Cu824       N827   2.075       .  S
Cu825       N835   2.074       .  S
Cu826       N828   2.077       .  S
Cu826       N834   2.077       .  S
N827        N828   1.324       .  A
N827        C831   1.345       .  A
N828        C829   1.346       .  A
C829        C830   1.380       .  A
C829        H832   1.082       .  S
C830        C831   1.379       .  A
C830       C1396   1.437       .  S
C831        H833   1.082       .  S
N834        N835   1.323       .  A
N834        C838   1.347       .  A
N835        C836   1.345       .  A
C836        C837   1.379       .  A
C836        H839   1.082       .  S
C837        C838   1.381       .  A
C837       C1418   1.439       .  S
C838        H840   1.082       .  S
N841        N842   1.323       .  A
N841        C845   1.345       .  A
N841       Cu849   2.075       .  S
N842        C843   1.347       .  A
N842       Cu848   2.076       .  S
C843        C844   1.381       .  A
C843        H846   1.082       .  S
C844        C845   1.380       .  A
C844       C1414   1.439       .  S
C845        H847   1.082       .  S
Cu848       N851   2.076       .  S
Cu849       N859   2.075       .  S
Cu850       N852   2.075       .  S
Cu850       N858   2.075       .  S
N851        N852   1.324       .  A
N851        C855   1.345       .  A
N852        C853   1.345       .  A
C853        C854   1.379       .  A
C853        H856   1.082       .  S
C854        C855   1.379       .  A
C854       C1393   1.436       .  S
C855        H857   1.082       .  S
N858        N859   1.323       .  A
N858        C862   1.347       .  A
N859        C860   1.345       .  A
C860        C861   1.379       .  A
C860        H863   1.082       .  S
C861        C862   1.381       .  A
C861       C1421   1.439       .  S
C862        H864   1.082       .  S
N865        N866   1.323       .  A
N865        C869   1.345       .  A
N865       Cu873   2.073       .  S
N866        C867   1.347       .  A
N866       Cu872   2.077       .  S
C867        C868   1.381       .  A
C867        H870   1.082       .  S
C868        C869   1.379       .  A
C868       C1389   1.438       .  S
C869        H871   1.082       .  S
Cu872       N875   2.077       .  S
Cu873       N883   2.073       .  S
Cu874       N876   2.076       .  S
Cu874       N882   2.076       .  S
N875        N876   1.324       .  A
N875        C879   1.346       .  A
N876        C877   1.346   1_655  A
C877        C878   1.379   1_455  A
C877        H880   1.082       .  S
C878        C879   1.379       .  A
C878       C1384   1.437   1_655  S
C879        H881   1.082       .  S
N882        N883   1.323       .  A
N882        C886   1.347       .  A
N883        C884   1.345       .  A
C884        C885   1.379       .  A
C884        H887   1.082       .  S
C885        C886   1.381       .  A
C885       C1388   1.438       .  S
C886        H888   1.082       .  S
N889        N890   1.323       .  A
N889        C893   1.345       .  A
N889       Cu897   2.072       .  S
N890        C891   1.346       .  A
N890       Cu896   2.074       .  S
C891        C892   1.381       .  A
C891        H894   1.082       .  S
C892        C893   1.379       .  A
C892       C1375   1.438       .  S
C893        H895   1.082       .  S
Cu896       N899   2.074       .  S
Cu897       N907   2.072       .  S
Cu898       N900   2.078       .  S
Cu898       N906   2.079       .  S
N899        N900   1.324       .  A
N899        C903   1.345   1_655  A
N900        C901   1.346       .  A
C901        C902   1.380       .  A
C901        H904   1.082       .  S
C902        C903   1.379   1_655  A
C902       C1373   1.437   1_655  S
C903        H905   1.082       .  S
N906        N907   1.323       .  A
N906        C910   1.347       .  A
N907        C908   1.345       .  A
C908        C909   1.379       .  A
C908        H911   1.082       .  S
C909        C910   1.381       .  A
C909       C1379   1.439       .  S
C910        H912   1.082       .  S
N913        N914   1.323       .  A
N913        C917   1.345       .  A
N913       Cu921   2.072       .  S
N914        C915   1.346       .  A
N914       Cu920   2.074       .  S
C915        C916   1.380       .  A
C915        H918   1.082       .  S
C916        C917   1.379       .  A
C916       C1369   1.438       .  S
C917        H919   1.082       .  S
Cu920       N923   2.074       .  S
Cu921       N931   2.072       .  S
Cu922       N924   2.079       .  S
Cu922       N930   2.079       .  S
N923        N924   1.324       .  A
N923        C927   1.345       .  A
N924        C925   1.346       .  A
C925        C926   1.380       .  A
C925        H928   1.082       .  S
C926        C927   1.379       .  A
C926       C1363   1.437       .  S
C927        H929   1.082       .  S
N930        N931   1.323       .  A
N930        C934   1.347       .  A
N931        C932   1.345       .  A
C932        C933   1.379       .  A
C932        H935   1.082       .  S
C933        C934   1.381       .  A
C933       C1368   1.439       .  S
C934        H936   1.082       .  S
N937        N938   1.323       .  A
N937        C941   1.345       .  A
N937       Cu945   2.072       .  S
N938        C939   1.346       .  A
N938       Cu944   2.075       .  S
C939        C940   1.381       .  A
C939        H942   1.082       .  S
C940        C941   1.379       .  A
C940       C1372   1.438       .  S
C941        H943   1.082       .  S
Cu944       N947   2.075       .  S
Cu945       N955   2.072       .  S
Cu946       N948   2.077       .  S
Cu946       N954   2.077       .  S
N947        N948   1.324       .  A
N947        C951   1.345       .  A
N948        C949   1.346       .  A
C949        C950   1.380       .  A
C949        H952   1.082       .  S
C950        C951   1.379       .  A
C950       C1361   1.437       .  S
C951        H953   1.082       .  S
N954        N955   1.323       .  A
N954        C958   1.346       .  A
N955        C956   1.345       .  A
C956        C957   1.379       .  A
C956        H959   1.082       .  S
C957        C958   1.381       .  A
C957       C1392   1.438       .  S
C958        H960   1.082       .  S
N961        N962   1.323       .  A
N961        C965   1.345       .  A
N961       Cu969   2.076       .  S
N962        C963   1.347       .  A
N962       Cu968   2.075       .  S
C963        C964   1.381       .  A
C963        H966   1.082       .  S
C964        C965   1.380       .  A
C964       C1365   1.439       .  S
C965        H967   1.082       .  S
Cu968       N971   2.075       .  S
Cu969       N979   2.076       .  S
Cu970       N972   2.075       .  S
Cu970       N978   2.075       .  S
N971        N972   1.324       .  A
N971        C975   1.345       .  A
N972        C973   1.345       .  A
C973        C974   1.379       .  A
C973        H976   1.082       .  S
C974        C975   1.379       .  A
C974       C1359   1.436       .  S
C975        H977   1.082       .  S
N978        N979   1.323       .  A
N978        C982   1.347       .  A
N979        C980   1.345       .  A
C980        C981   1.380       .  A
C980        H983   1.082       .  S
C981        C982   1.380       .  A
C981       C1382   1.439       .  S
C982        H984   1.082       .  S
N985        N986   1.323       .  A
N985        C989   1.345       .  A
N985       Cu993   2.072       .  S
N986        C987   1.346       .  A
N986       Cu992   2.075       .  S
C987        C988   1.381       .  A
C987        H990   1.082       .  S
C988        C989   1.379       .  A
C988       C1378   1.438       .  S
C989        H991   1.082       .  S
Cu992       N995   2.075       .  S
Cu993      N1003   2.072       .  S
Cu994       N996   2.077       .  S
Cu994      N1002   2.076       .  S
N995        N996   1.324       .  A
N995        C999   1.345       .  A
N996        C997   1.346       .  A
C997        C998   1.380       .  A
C997       H1000   1.082       .  S
C998        C999   1.379       .  A
C998       C1357   1.437       .  S
C999       H1001   1.082       .  S
N1002      N1003   1.323       .  A
N1002      C1006   1.346       .  A
N1003      C1004   1.345       .  A
C1004      C1005   1.379       .  A
C1004      H1007   1.082       .  S
C1005      C1006   1.381       .  A
C1005      C1385   1.438       .  S
C1006      H1008   1.082       .  S
N1009      N1010   1.323       .  A
N1009      C1013   1.345       .  A
N1009     Cu1017   2.073       .  S
N1010      C1011   1.347       .  A
N1010     Cu1016   2.077       .  S
C1011      C1012   1.381       .  A
C1011      H1014   1.082       .  S
C1012      C1013   1.379       .  A
C1012      C1349   1.439       .  S
C1013      H1015   1.082       .  S
Cu1016     N1019   2.077       .  S
Cu1017     N1027   2.073       .  S
Cu1018     N1020   2.077       .  S
Cu1018     N1026   2.077       .  S
N1019      N1020   1.324       .  A
N1019      C1023   1.346       .  A
N1020      C1021   1.346       .  A
C1021      C1022   1.379       .  A
C1021      H1024   1.082       .  S
C1022      C1023   1.379       .  A
C1022      C1348   1.438       .  S
C1023      H1025   1.082       .  S
N1026      N1027   1.323       .  A
N1026      C1030   1.347       .  A
N1027      C1028   1.345       .  A
C1028      C1029   1.379       .  A
C1028      H1031   1.082       .  S
C1029      C1030   1.381       .  A
C1029      C1353   1.439       .  S
C1030      H1032   1.082       .  S
N1033      N1034   1.323       .  A
N1033      C1037   1.345       .  A
N1033     Cu1041   2.072       .  S
N1034      C1035   1.347       .  A
N1034     Cu1040   2.074       .  S
C1035      C1036   1.381       .  A
C1035      H1038   1.082       .  S
C1036      C1037   1.379       .  A
C1036      C1342   1.438       .  S
C1037      H1039   1.082       .  S
Cu1040     N1043   2.075       .  S
Cu1041     N1051   2.073       .  S
Cu1042     N1044   2.079       .  S
Cu1042     N1050   2.079       .  S
N1043      N1044   1.324       .  A
N1043      C1047   1.345       .  A
N1044      C1045   1.346       .  A
C1045      C1046   1.380       .  A
C1045      H1048   1.082       .  S
C1046      C1047   1.379       .  A
C1046      C1338   1.437       .  S
C1047      H1049   1.082       .  S
N1050      N1051   1.323       .  A
N1050      C1054   1.347       .  A
N1051      C1052   1.345       .  A
C1052      C1053   1.379       .  A
C1052      H1055   1.082       .  S
C1053      C1054   1.381       .  A
C1053      C1343   1.439       .  S
C1054      H1056   1.082       .  S
N1057      N1058   1.323       .  A
N1057      C1061   1.345       .  A
N1057     Cu1065   2.072       .  S
N1058      C1059   1.346       .  A
N1058     Cu1064   2.074       .  S
C1059      C1060   1.381       .  A
C1059      H1062   1.082       .  S
C1060      C1061   1.379       .  A
C1060      C1333   1.438       .  S
C1061      H1063   1.082       .  S
Cu1064     N1067   2.074       .  S
Cu1065     N1075   2.072       .  S
Cu1066     N1068   2.078       .  S
Cu1066     N1074   2.078       .  S
N1067      N1068   1.324       .  A
N1067      C1071   1.345       .  A
N1068      C1069   1.346       .  A
C1069      C1070   1.380       .  A
C1069      H1072   1.082       .  S
C1070      C1071   1.379       .  A
C1070      C1327   1.437       .  S
C1071      H1073   1.082       .  S
N1074      N1075   1.323       .  A
N1074      C1078   1.347       .  A
N1075      C1076   1.345       .  A
C1076      C1077   1.379       .  A
C1076      H1079   1.082       .  S
C1077      C1078   1.381       .  A
C1077      C1332   1.439       .  S
C1078      H1080   1.082       .  S
N1081      N1082   1.323       .  A
N1081      C1085   1.345       .  A
N1081     Cu1089   2.075       .  S
N1082      C1083   1.347       .  A
N1082     Cu1088   2.075       .  S
C1083      C1084   1.380       .  A
C1083      H1086   1.082       .  S
C1084      C1085   1.380       .  A
C1084      C1329   1.439       .  S
C1085      H1087   1.082       .  S
Cu1088     N1091   2.075       .  S
Cu1089     N1099   2.075       .  S
Cu1090     N1092   2.075       .  S
Cu1090     N1098   2.075       .  S
N1091      N1092   1.324       .  A
N1091      C1095   1.345       .  A
N1092      C1093   1.346       .  A
C1093      C1094   1.379       .  A
C1093      H1096   1.082       .  S
C1094      C1095   1.379       .  A
C1094      C1325   1.436       .  S
C1095      H1097   1.082       .  S
N1098      N1099   1.323       .  A
N1098      C1102   1.347       .  A
N1099      C1100   1.345       .  A
C1100      C1101   1.380       .  A
C1100      H1103   1.082       .  S
C1101      C1102   1.381       .  A
C1101      C1346   1.439       .  S
C1102      H1104   1.082       .  S
N1105      N1106   1.323       .  A
N1105      C1109   1.345       .  A
N1105     Cu1113   2.072       .  S
N1106      C1107   1.346       .  A
N1106     Cu1112   2.075       .  S
C1107      C1108   1.380       .  A
C1107      H1110   1.082       .  S
C1108      C1109   1.379       .  A
C1108      C1336   1.438       .  S
C1109      H1111   1.082       .  S
Cu1112     N1115   2.075       .  S
Cu1113     N1123   2.073       .  S
Cu1114     N1116   2.076       .  S
Cu1114     N1122   2.076       .  S
N1115      N1116   1.324       .  A
N1115      C1119   1.345       .  A
N1116      C1117   1.346       .  A
C1117      C1118   1.379       .  A
C1117      H1120   1.082       .  S
C1118      C1119   1.379       .  A
C1118      C1323   1.437       .  S
C1119      H1121   1.082       .  S
N1122      N1123   1.323       .  A
N1122      C1126   1.346       .  A
N1123      C1124   1.345       .  A
C1124      C1125   1.379       .  A
C1124      H1127   1.082       .  S
C1125      C1126   1.381       .  A
C1125      C1352   1.439       .  S
C1126      H1128   1.082       .  S
N1129      N1130   1.323       .  A
N1129      C1133   1.345       .  A
N1129     Cu1137   2.073       .  S
N1130      C1131   1.347       .  A
N1130     Cu1136   2.076       .  S
C1131      C1132   1.381       .  A
C1131      H1134   1.082       .  S
C1132      C1133   1.379       .  A
C1132      C1339   1.438       .  S
C1133      H1135   1.082       .  S
Cu1136     N1139   2.076       .  S
Cu1137     N1147   2.073       .  S
Cu1138     N1140   2.077       .  S
Cu1138     N1146   2.077       .  S
N1139      N1140   1.324       .  A
N1139      C1143   1.345       .  A
N1140      C1141   1.346       .  A
C1141      C1142   1.380       .  A
C1141      H1144   1.082       .  S
C1142      C1143   1.379       .  A
C1142      C1322   1.437       .  S
C1143      H1145   1.082       .  S
N1146      N1147   1.323       .  A
N1146      C1150   1.347       .  A
N1147      C1148   1.345       .  A
C1148      C1149   1.379       .  A
C1148      H1151   1.082       .  S
C1149      C1150   1.381       .  A
C1149      C1356   1.439       .  S
C1150      H1152   1.082       .  S
O1153     Cu1161   2.012       .  S
O1153      C1163   1.277       .  A
O1154     Cu1161   2.012       .  S
O1154      C1164   1.277       .  A
O1155     Cu1161   2.012       .  S
O1155      C1165   1.277       .  A
O1156     Cu1161   2.012       .  S
O1156      C1166   1.277       .  A
O1157     Cu1162   2.008       .  S
O1157      C1166   1.276       .  A
O1158     Cu1162   2.009       .  S
O1158      C1165   1.276       .  A
O1159     Cu1162   2.009       .  S
O1159      C1164   1.276       .  A
O1160     Cu1162   2.008       .  S
O1160      C1163   1.276       .  A
Cu1161    Cu1162   2.380       .  S
C1163      C1434   1.435       .  S
C1164      C1362   1.435       .  S
C1165      C1321   1.435       .  S
C1166      C1397   1.435       .  S
O1167     Cu1175   2.011       .  S
O1167      C1177   1.277       .  A
O1168     Cu1175   2.011       .  S
O1168      C1178   1.277       .  A
O1169     Cu1175   2.012       .  S
O1169      C1179   1.277       .  A
O1170     Cu1175   2.012       .  S
O1170      C1180   1.277       .  A
O1171     Cu1176   2.009       .  S
O1171      C1180   1.276       .  A
O1172     Cu1176   2.008       .  S
O1172      C1179   1.276       .  A
O1173     Cu1176   2.008       .  S
O1173      C1178   1.276       .  A
O1174     Cu1176   2.008       .  S
O1174      C1177   1.276       .  A
Cu1175    Cu1176   2.380       .  S
C1177      C1324   1.435       .  S
C1178      C1504   1.435       .  S
C1179      C1430   1.435       .  S
C1180      C1537   1.436       .  S
O1181     Cu1189   2.007       .  S
O1181      C1191   1.276       .  A
O1182     Cu1189   2.007       .  S
O1182      C1192   1.276       .  A
O1183     Cu1189   2.007       .  S
O1183      C1193   1.276       .  A
O1184     Cu1189   2.007       .  S
O1184      C1194   1.276       .  A
O1185     Cu1190   2.010       .  S
O1185      C1194   1.276       .  A
O1186     Cu1190   2.010       .  S
O1186      C1193   1.277       .  A
O1187     Cu1190   2.010       .  S
O1187      C1192   1.277       .  A
O1188     Cu1190   2.010       .  S
O1188      C1191   1.277       .  A
Cu1189    Cu1190   2.380       .  S
C1191      C1326   1.434       .  S
C1192      C1574   1.434       .  S
C1193      C1360   1.434       .  S
C1194      C1540   1.434       .  S
O1195     Cu1203   2.012       .  S
O1195      C1205   1.277   1_455  A
O1196     Cu1203   2.012       .  S
O1196      C1206   1.277   1_455  A
O1197     Cu1203   2.011       .  S
O1197      C1207   1.277   1_455  A
O1198     Cu1203   2.011       .  S
O1198      C1208   1.277   1_455  A
O1199     Cu1204   2.008       .  S
O1199      C1208   1.276       .  A
O1200     Cu1204   2.009       .  S
O1200      C1207   1.276       .  A
O1201     Cu1204   2.009       .  S
O1201      C1206   1.276       .  A
O1202     Cu1204   2.008       .  S
O1202      C1205   1.276       .  A
Cu1203    Cu1204   2.380   1_455  S
C1205      C1395   1.435       .  S
C1206      C1576   1.436       .  S
C1207      C1358   1.435       .  S
C1208      C1469   1.435       .  S
O1209     Cu1217   2.007       .  S
O1209      C1219   1.276       .  A
O1210     Cu1217   2.007       .  S
O1210      C1220   1.276       .  A
O1211     Cu1217   2.006       .  S
O1211      C1221   1.276       .  A
O1212     Cu1217   2.007       .  S
O1212      C1222   1.276       .  A
O1213     Cu1218   2.010       .  S
O1213      C1222   1.277       .  A
O1214     Cu1218   2.010       .  S
O1214      C1221   1.277       .  A
O1215     Cu1218   2.010       .  S
O1215      C1220   1.277       .  A
O1216     Cu1218   2.010       .  S
O1216      C1219   1.277       .  A
Cu1217    Cu1218   2.380       .  S
C1219      C1465   1.434       .  S
C1220      C1432   1.434       .  S
C1221      C1394   1.434       .  S
C1222      C1501   1.434       .  S
O1223     Cu1231   2.008       .  S
O1223      C1233   1.276       .  A
O1224     Cu1231   2.008       .  S
O1224      C1234   1.276       .  A
O1225     Cu1231   2.009       .  S
O1225      C1235   1.276       .  A
O1226     Cu1231   2.008       .  S
O1226      C1236   1.276       .  A
O1227     Cu1232   2.012       .  S
O1227      C1236   1.277       .  A
O1228     Cu1232   2.011       .  S
O1228      C1235   1.277       .  A
O1229     Cu1232   2.011       .  S
O1229      C1234   1.277       .  A
O1230     Cu1232   2.012       .  S
O1230      C1233   1.277       .  A
Cu1231    Cu1232   2.380       .  S
C1233      C1506   1.435       .  S
C1234      C1577   1.435       .  S
C1235      C1542   1.435       .  S
C1236      C1468   1.435       .  S
O1237     Cu1245   2.010       .  S
O1237      C1247   1.276   1_545  A
O1238     Cu1245   2.011       .  S
O1238      C1248   1.277       .  A
O1239     Cu1245   2.010       .  S
O1239      C1249   1.276   1_545  A
O1240     Cu1245   2.011       .  S
O1240      C1250   1.277       .  A
O1241     Cu1246   2.009       .  S
O1241      C1250   1.276       .  A
O1242     Cu1246   2.008       .  S
O1242      C1249   1.276   1_545  A
O1243     Cu1246   2.009       .  S
O1243      C1248   1.276       .  A
O1244     Cu1246   2.009       .  S
O1244      C1247   1.276   1_545  A
Cu1245    Cu1246   2.380       .  S
C1247      C1445   1.435       .  S
C1248      C1374   1.435       .  S
C1249      C1409   1.435       .  S
C1250      C1328   1.435       .  S
O1251     Cu1259   2.009       .  S
O1251      C1261   1.276   1_545  A
O1252     Cu1259   2.009       .  S
O1252      C1262   1.276       .  A
O1253     Cu1259   2.008       .  S
O1253      C1263   1.276   1_545  A
O1254     Cu1259   2.009       .  S
O1254      C1264   1.276       .  A
O1255     Cu1260   2.011       .  S
O1255      C1264   1.277       .  A
O1256     Cu1260   2.010       .  S
O1256      C1263   1.276   1_545  A
O1257     Cu1260   2.011       .  S
O1257      C1262   1.277       .  A
O1258     Cu1260   2.010       .  S
O1258      C1261   1.276   1_545  A
Cu1259    Cu1260   2.380       .  S
C1261      C1518   1.435       .  S
C1262      C1590   1.435       .  S
C1263      C1492   1.435       .  S
C1264      C1553   1.435       .  S
O1265     Cu1273   2.011       .  S
O1265      C1275   1.277   1_556  A
O1266     Cu1273   2.010       .  S
O1266      C1276   1.277   1_545  A
O1267     Cu1273   2.010       .  S
O1267      C1277   1.276       .  A
O1268     Cu1273   2.010       .  S
O1268      C1278   1.276   1_546  A
O1269     Cu1274   2.009       .  S
O1269      C1278   1.276   1_546  A
O1270     Cu1274   2.009       .  S
O1270      C1277   1.276       .  A
O1271     Cu1274   2.009       .  S
O1271      C1276   1.276   1_545  A
O1272     Cu1274   2.009       .  S
O1272      C1275   1.276   1_556  A
Cu1273    Cu1274   2.380       .  S
C1275      C1337   1.435       .  S
C1276      C1528   1.435       .  S
C1277      C1543   1.435       .  S
C1278      C1436   1.435       .  S
O1279     Cu1287   2.008       .  S
O1279      C1289   1.276       .  A
O1280     Cu1287   2.008       .  S
O1280      C1290   1.276   1_556  A
O1281     Cu1287   2.008       .  S
O1281      C1291   1.276   1_556  A
O1282     Cu1287   2.008       .  S
O1282      C1292   1.276       .  A
O1283     Cu1288   2.013       .  S
O1283      C1292   1.277       .  A
O1284     Cu1288   2.013       .  S
O1284      C1291   1.277   1_556  A
O1285     Cu1288   2.013       .  S
O1285      C1290   1.277   1_556  A
O1286     Cu1288   2.013       .  S
O1286      C1289   1.277       .  A
Cu1287    Cu1288   2.380       .  S
C1289      C1580   1.436       .  S
C1290      C1347   1.436       .  S
C1291      C1383   1.435       .  S
C1292      C1563   1.436       .  S
O1293     Cu1301   2.010       .  S
O1293      C1303   1.276       .  A
O1294     Cu1301   2.010       .  S
O1294      C1304   1.276   1_546  A
O1295     Cu1301   2.011       .  S
O1295      C1305   1.277   1_556  A
O1296     Cu1301   2.010       .  S
O1296      C1306   1.277   1_545  A
O1297     Cu1302   2.008       .  S
O1297      C1306   1.276   1_545  A
O1298     Cu1302   2.009       .  S
O1298      C1305   1.276   1_556  A
O1299     Cu1302   2.009       .  S
O1299      C1304   1.276   1_546  A
O1300     Cu1302   2.009       .  S
O1300      C1303   1.276       .  A
Cu1301    Cu1302   2.380       .  S
C1303      C1599   1.435       .  S
C1304      C1420   1.435       .  S
C1305      C1364   1.435       .  S
C1306      C1482   1.435       .  S
O1307     Cu1315   2.010       .  S
O1307      C1317   1.276       .  A
O1308     Cu1315   2.010       .  S
O1308      C1318   1.276   1_556  A
O1309     Cu1315   2.010       .  S
O1309      C1319   1.276       .  A
O1310     Cu1315   2.010       .  S
O1310      C1320   1.276   1_556  A
O1311     Cu1316   2.015       .  S
O1311      C1320   1.277   1_556  A
O1312     Cu1316   2.015       .  S
O1312      C1319   1.277       .  A
O1313     Cu1316   2.015       .  S
O1313      C1318   1.277   1_556  A
O1314     Cu1316   2.015       .  S
O1314      C1317   1.277       .  A
Cu1315    Cu1316   2.379       .  S
C1317      C1472   1.437       .  S
C1318      C1455   1.437       .  S
C1319      C1508   1.437       .  S
C1320      C1400   1.437       .  S
C1321      C1322   1.206       .  T
C1323      C1324   1.206       .  T
C1325      C1326   1.205       .  T
C1327      C1328   1.206       .  T
C1329      C1330   1.207       .  T
C1330      C1331   1.414       .  S
C1331      C1332   1.207       .  T
C1333      C1334   1.206       .  T
C1334      C1335   1.413       .  S
C1335      C1336   1.206       .  T
C1337      C1338   1.206       .  T
C1339      C1340   1.206       .  T
C1340      C1341   1.413       .  S
C1341      C1342   1.206       .  T
C1343      C1344   1.207       .  T
C1344      C1345   1.414       .  S
C1345      C1346   1.207       .  T
C1347      C1348   1.206       .  T
C1349      C1350   1.207       .  T
C1350      C1351   1.414       .  S
C1351      C1352   1.207       .  T
C1353      C1354   1.207       .  T
C1354      C1355   1.414       .  S
C1355      C1356   1.207       .  T
C1357      C1358   1.206       .  T
C1359      C1360   1.205       .  T
C1361      C1362   1.206       .  T
C1363      C1364   1.206       .  T
C1365      C1366   1.207       .  T
C1366      C1367   1.414       .  S
C1367      C1368   1.207       .  T
C1369      C1370   1.206       .  T
C1370      C1371   1.413       .  S
C1371      C1372   1.206       .  T
C1373      C1374   1.206       .  T
C1375      C1376   1.206       .  T
C1376      C1377   1.413       .  S
C1377      C1378   1.206       .  T
C1379      C1380   1.207       .  T
C1380      C1381   1.414       .  S
C1381      C1382   1.207       .  T
C1383      C1384   1.206       .  T
C1385      C1386   1.206       .  T
C1386      C1387   1.413       .  S
C1387      C1388   1.206       .  T
C1389      C1390   1.207       .  T
C1390      C1391   1.413       .  S
C1391      C1392   1.207       .  T
C1393      C1394   1.205       .  T
C1395      C1396   1.206       .  T
C1397      C1398   1.206       .  T
C1399      C1400   1.207       .  T
C1401      C1402   1.207       .  T
C1402      C1403   1.414       .  S
C1403      C1404   1.207       .  T
C1405      C1406   1.207       .  T
C1406      C1407   1.414       .  S
C1407      C1408   1.207       .  T
C1409      C1410   1.206       .  T
C1411      C1412   1.207       .  T
C1412      C1413   1.414       .  S
C1413      C1414   1.207       .  T
C1415      C1416   1.207       .  T
C1416      C1417   1.414       .  S
C1417      C1418   1.207       .  T
C1419      C1420   1.206       .  T
C1421      C1422   1.207       .  T
C1422      C1423   1.414       .  S
C1423      C1424   1.207       .  T
C1425      C1426   1.207       .  T
C1426      C1427   1.413       .  S
C1427      C1428   1.207       .  T
C1429      C1430   1.206       .  T
C1431      C1432   1.205       .  T
C1433      C1434   1.206       .  T
C1435      C1436   1.206       .  T
C1437      C1438   1.207       .  T
C1438      C1439   1.414       .  S
C1439      C1440   1.207       .  T
C1441      C1442   1.206       .  T
C1442      C1443   1.413       .  S
C1443      C1444   1.206       .  T
C1445      C1446   1.206       .  T
C1447      C1448   1.207       .  T
C1448      C1449   1.414       .  S
C1449      C1450   1.207       .  T
C1451      C1452   1.207       .  T
C1452      C1453   1.414       .  S
C1453      C1454   1.207       .  T
C1455      C1456   1.207       .  T
C1457      C1458   1.207       .  T
C1458      C1459   1.414       .  S
C1459      C1460   1.207       .  T
C1461      C1462   1.207       .  T
C1462      C1463   1.413       .  S
C1463      C1464   1.207       .  T
C1465      C1466   1.205       .  T
C1467      C1468   1.206       .  T
C1469      C1470   1.206       .  T
C1471      C1472   1.207       .  T
C1473      C1474   1.207       .  T
C1474      C1475   1.413       .  S
C1475      C1476   1.207       .  T
C1477      C1478   1.207       .  T
C1478      C1479   1.414       .  S
C1479      C1480   1.207       .  T
C1481      C1482   1.206       .  T
C1483      C1484   1.207       .  T
C1484      C1485   1.414       .  S
C1485      C1486   1.207       .  T
C1487      C1488   1.207       .  T
C1488      C1489   1.414       .  S
C1489      C1490   1.207       .  T
C1491      C1492   1.206       .  T
C1493      C1494   1.206       .  T
C1494      C1495   1.413       .  S
C1495      C1496   1.206       .  T
C1497      C1498   1.207       .  T
C1498      C1499   1.414       .  S
C1499      C1500   1.207       .  T
C1501      C1502   1.205       .  T
C1503      C1504   1.206       .  T
C1505      C1506   1.206       .  T
C1507      C1508   1.207       .  T
C1509      C1510   1.207       .  T
C1510      C1511   1.413       .  S
C1511      C1512   1.207       .  T
C1513      C1514   1.207       .  T
C1514      C1515   1.414       .  S
C1515      C1516   1.207       .  T
C1517      C1518   1.206       .  T
C1519      C1520   1.207       .  T
C1520      C1521   1.414       .  S
C1521      C1522   1.207       .  T
C1523      C1524   1.207       .  T
C1524      C1525   1.413       .  S
C1525      C1526   1.207       .  T
C1527      C1528   1.206       .  T
C1529      C1530   1.207       .  T
C1530      C1531   1.414       .  S
C1531      C1532   1.207       .  T
C1533      C1534   1.207       .  T
C1534      C1535   1.414       .  S
C1535      C1536   1.207       .  T
C1537      C1538   1.206       .  T
C1539      C1540   1.205       .  T
C1541      C1542   1.206       .  T
C1543      C1544   1.206       .  T
C1545      C1546   1.206       .  T
C1546      C1547   1.413       .  S
C1547      C1548   1.206       .  T
C1549      C1550   1.206       .  T
C1550      C1551   1.413       .  S
C1551      C1552   1.206       .  T
C1553      C1554   1.206       .  T
C1555      C1556   1.206       .  T
C1556      C1557   1.413       .  S
C1557      C1558   1.206       .  T
C1559      C1560   1.207       .  T
C1560      C1561   1.414       .  S
C1561      C1562   1.207       .  T
C1563      C1564   1.206       .  T
C1565      C1566   1.207       .  T
C1566      C1567   1.414       .  S
C1567      C1568   1.207       .  T
C1569      C1570   1.207       .  T
C1570      C1571   1.414       .  S
C1571      C1572   1.207       .  T
C1573      C1574   1.205       .  T
C1575      C1576   1.206       .  T
C1577      C1578   1.206       .  T
C1579      C1580   1.206       .  T
C1581      C1582   1.207       .  T
C1582      C1583   1.414       .  S
C1583      C1584   1.207       .  T
C1585      C1586   1.207       .  T
C1586      C1587   1.413       .  S
C1587      C1588   1.207       .  T
C1589      C1590   1.206       .  T
C1591      C1592   1.206       .  T
C1592      C1593   1.413       .  S
C1593      C1594   1.206       .  T
C1595      C1596   1.207       .  T
C1596      C1597   1.414       .  S
C1597      C1598   1.207       .  T
C1599      C1600   1.206       .  T
C1601      C1602   1.206       .  T
C1602      C1603   1.413       .  S
C1603      C1604   1.206       .  T
C1605      C1606   1.207       .  T
C1606      C1607   1.413       .  S
C1607      C1608   1.207       .  T
