geometry optimzed in LAMMPS
_audit_creation_date              2020-11-30 
_audit_creation_method            'lammps2cif' 
_symmetry_space_group_name_H-M    'P1' 
_symmetry_Int_Tables_number       1 
_symmetry_cell_setting            triclinic 
loop_ 
_symmetry_equiv_pos_as_xyz 
  x,y,z 
_cell_length_a                    38.46569411 
_cell_length_b                    38.56733535866712 
_cell_length_c                    38.536814636732466 
_cell_angle_alpha                 89.940325898687 
_cell_angle_beta                  90.17046024529726 
_cell_angle_gamma                 90.03003385892177 
loop_ 
_atom_site_label 
_atom_site_type_symbol 
_atom_site_fract_x 
_atom_site_fract_y 
_atom_site_fract_z 
_atom_site_charge 
C1          C  0.42680458  0.41996768  0.07180776     0.42400
N2          N  0.44069273  0.45468744  0.03087055     0.01300
C3          C  0.59523224  0.46447936  0.44135664    -0.06600
H4          H  0.60654186  0.47898920  0.07668377     0.06800
C5          C  0.53306089  0.58733206  0.06627733    -0.06900
Co6        Co  0.50814004  0.43638146  0.99830591     0.74200
N7          N  0.56490565  0.46668125  0.04130977    -0.26100
Co8        Co  0.56543313  0.50556238  0.50442156     0.74100
C9          C  0.56414617  0.57744677  0.08558559     0.42500
N10         N  0.45528473  0.55703423  0.03376940     0.00900
N11         N  0.55766788  0.54294430  0.04256176     0.01000
N12         N  0.55635302  0.42051587  0.43812671    -0.47000
H13         H  0.47723622  0.38831419  0.06517233     0.06800
N14         N  0.54327817  0.44026867  0.03891159     0.01300
N15         N  0.56426690  0.54433298  0.46717765     0.01000
C16         C  0.57714256  0.57827796  0.42532351     0.42700
N17         N  0.43328162  0.53094344  0.03124141    -0.25600
C18         C  0.46934344  0.41031952  0.43214390    -0.06500
N19         N  0.41589893  0.44768242  0.05344243    -0.46700
N20         N  0.58869604  0.55106463  0.44405249    -0.46900
C21         C  0.43789608  0.42078333  0.41350998     0.42400
N22         N  0.54885053  0.44201155  0.46364804     0.01300
N23         N  0.44002530  0.53185358  0.45609230    -0.25600
N24         N  0.46703254  0.43291367  0.03290015    -0.26100
N25         N  0.46161315  0.55829122  0.45844600     0.00900
H26         H  0.39894652  0.51909057  0.42021517     0.06800
H27         H  0.52639015  0.60938797  0.43191510     0.06900
N28         N  0.57106844  0.46797524  0.46613385    -0.26100
N29         N  0.53127800  0.56460215  0.04020464    -0.25700
N30         N  0.44659154  0.45575351  0.45571061     0.01300
C31         C  0.57414341  0.42915491  0.08365953     0.42700
C32         C  0.40874835  0.53441065  0.05561151    -0.07000
N33         N  0.53767948  0.56578652  0.46507825    -0.25700
H34         H  0.51544101  0.60877403  0.07032662     0.06800
N35         N  0.54822515  0.41691447  0.06351365    -0.47000
H36         H  0.38700799  0.51709467  0.05964744     0.06800
C37         C  0.43137471  0.56887525  0.41312006     0.42500
C38         C  0.46074596  0.40994595  0.05823413    -0.06500
Co39       Co  0.43935480  0.49326830  0.99339684     0.73800
N40         N  0.44733451  0.57863629  0.05910594    -0.46700
C41         C  0.58511969  0.43306805  0.42271541     0.42800
N42         N  0.42512141  0.44891535  0.42980044    -0.46700
Co43       Co  0.49633309  0.56226030  0.49936162     0.73900
C44         C  0.54338690  0.58828916  0.43926909    -0.07000
C45         C  0.58544770  0.46210568  0.06896568    -0.06600
N46         N  0.47257025  0.43360148  0.45776328    -0.26100
N47         N  0.57827074  0.54990366  0.06923260    -0.46800
H48         H  0.61704651  0.48165498  0.43716108     0.06800
C49         C  0.41990521  0.53608378  0.42806664    -0.07000
Cl50       Cl  0.50234681  0.49936676  0.99888984    -0.50000
C51         C  0.41843769  0.56590419  0.07418547     0.42600
H52         H  0.48619526  0.38828328  0.42800757     0.06800
N53         N  0.45699569  0.58136194  0.43350996    -0.46700
C54         C  0.57683808  0.92574177  0.08301305     0.42400
N55         N  0.56114789  0.96248435  0.04382430     0.01300
C56         C  0.40939676  0.06041786  0.03954361    -0.06600
H57         H  0.38724666  0.93428191  0.02320316     0.06800
C58         C  0.46096704  0.93925798  0.40786008    -0.06900
Co59       Co  0.49578440  0.99993367  0.06335318     0.74200
N60         N  0.43497216  0.96208938  0.03302622    -0.26100
Co61       Co  0.43742884  0.99981770  0.99404058     0.74100
C62         C  0.42699510  0.92430160  0.41620415     0.42500
N63         N  0.54533654  0.96265413  0.43921709     0.00900
N64         N  0.44086321  0.96224368  0.45491323     0.01000
N65         N  0.44651703  0.05823149  0.08515652    -0.47000
H66         H  0.52748018  0.93645815  0.11513961     0.06800
N67         N  0.45683387  0.96222131  0.05957488     0.01300
N68         N  0.44085037  0.03771161  0.45526226     0.01000
C69         C  0.42683770  0.07591796  0.41689571     0.42700
N70         N  0.56719835  0.96248133  0.46574048    -0.25600
C71         C  0.54201938  0.06131440  0.09085919    -0.06500
N72         N  0.58658463  0.94124338  0.05310909    -0.46700
N73         N  0.41604484  0.05983472  0.44616829    -0.46900
C74         C  0.57603270  0.07585104  0.08161344     0.42400
N75         N  0.45639888  0.03709008  0.05991243     0.01300
N76         N  0.56701028  0.03783300  0.46587207    -0.25600
N77         N  0.53526888  0.96260968  0.06628073    -0.26100
N78         N  0.54518070  0.03763392  0.43934561     0.00900
H79         H  0.61446435  0.06609564  0.47584620     0.06800
H80         H  0.47671127  0.06507133  0.38557642     0.06900
N81         N  0.43462246  0.03724296  0.03329531    -0.26100
N82         N  0.46716096  0.96254532  0.43296050    -0.25700
N83         N  0.56094973  0.03773139  0.04362831     0.01300
C84         C  0.41862276  0.92391884  0.07301475     0.42700
C85         C  0.59212503  0.93892670  0.45957695    -0.07000
N86         N  0.46709780  0.03763877  0.43324350    -0.25700
H87         H  0.47695556  0.93556515  0.38513759     0.06800
N88         N  0.44739375  0.94046011  0.08448300    -0.47000
H89         H  0.61495728  0.93465203  0.47545843     0.06800
C90         C  0.58318110  0.07605540  0.42584380     0.42500
C91         C  0.54261721  0.93993122  0.09179565    -0.06500
Co92       Co  0.56436554  0.00008211  0.00484605     0.73800
N93         N  0.55472502  0.94101163  0.41420975    -0.46700
C94         C  0.41742112  0.07428306  0.07386338     0.42800
N95         N  0.58604329  0.05964408  0.05224178    -0.46700
Co96       Co  0.50624235  0.00011090  0.43586009     0.73900
C97         C  0.46081952  0.06115393  0.40834197    -0.07000
C98         C  0.41011435  0.93842804  0.03906117    -0.06600
N99         N  0.53501746  0.03777224  0.06604116    -0.26100
N100        N  0.41610562  0.94011575  0.44558311    -0.46800
H101        H  0.38651970  0.06443881  0.02366571     0.06800
C102        C  0.59170535  0.06169685  0.45989296    -0.07000
Cl103      Cl  0.50095285  0.99996683  0.99953656    -0.50000
C104        C  0.58361532  0.92460621  0.42553394     0.42600
H105        H  0.52674741  0.06539586  0.11400974     0.06800
N106        N  0.55444322  0.05945765  0.41442388    -0.46700
C107        C  0.92529425  0.42183512  0.07595422     0.42400
N108        N  0.96446136  0.43775912  0.03983519     0.01300
C109        C  0.05982163  0.59119485  0.04221001    -0.06600
H110        H  0.93319534  0.61090529  0.02381044     0.06800
C111        C  0.94177303  0.54198461  0.40623112    -0.06900
Co112      Co  0.00074736  0.50306892  0.06231113     0.74200
N113        N  0.96198482  0.56378170  0.03315206    -0.26100
Co114      Co  0.00037164  0.56291166  0.99486895     0.74100
C115        C  0.92661351  0.57555253  0.41565852     0.42500
N116        N  0.96561939  0.45616966  0.43607288     0.00900
N117        N  0.96343555  0.55989626  0.45493994     0.01000
N118        N  0.05969685  0.55197671  0.08581140    -0.47000
H119        H  0.93448361  0.46980716  0.11032134     0.06800
N120        N  0.96236446  0.54154319  0.05926929     0.01300
N121        N  0.03885547  0.56114838  0.45674934     0.01000
C122        C  0.07795989  0.57654947  0.42031237     0.42700
N123        N  0.96620069  0.43333194  0.46165468    -0.25600
C124        C  0.06159225  0.45781150  0.09050501    -0.06500
N125        N  0.94245863  0.41233555  0.04705202    -0.46700
N126        N  0.06091862  0.58644835  0.44920040    -0.46900
C127        C  0.07669351  0.42408366  0.08186237     0.42400
N128        N  0.03795580  0.54286720  0.06054614     0.01300
N129        N  0.04133639  0.43529373  0.46404638    -0.25600
N130        N  0.96366540  0.46304135  0.06297859    -0.26100
N131        N  0.04108567  0.45748328  0.43789904     0.00900
H132        H  0.06954790  0.38791225  0.47350459     0.06800
H133        H  0.06855647  0.52834995  0.38644688     0.06900
N134        N  0.03732452  0.56561671  0.03489514    -0.26100
N135        N  0.96440532  0.53459729  0.43186693    -0.25700
N136        N  0.03986780  0.43890224  0.04220724     0.01300
C137        C  0.92311645  0.57869437  0.07299798     0.42700
C138        C  0.94408921  0.40754581  0.45388089    -0.07000
N139        N  0.03959837  0.53571042  0.43379406    -0.25700
H140        H  0.93882752  0.52731441  0.38251059     0.06800
N141        N  0.94016843  0.55011185  0.08413190    -0.47000
H142        H  0.94080905  0.38416263  0.46902477     0.06800
C143        C  0.08019572  0.42010932  0.42450971     0.42500
C144        C  0.93956994  0.45521659  0.08692334    -0.06500
Co145      Co  0.00298188  0.43604542  0.00201127     0.73800
N146        N  0.94441574  0.44691115  0.41042601    -0.46700
C147        C  0.07477197  0.58218924  0.07604592     0.42800
N148        N  0.06163846  0.41390807  0.05173569    -0.46700
Co149      Co  0.00264076  0.49592583  0.43449662     0.73900
C150        C  0.06361299  0.54317497  0.40971600    -0.07000
C151        C  0.93767914  0.58793452  0.03931136    -0.06600
N152        N  0.03894465  0.46459315  0.06482919    -0.26100
N153        N  0.94164169  0.58498131  0.44597406    -0.46800
H154        H  0.06328257  0.61441225  0.02684812     0.06800
C155        C  0.06542543  0.41097171  0.45803830    -0.07000
Cl156      Cl  0.00166119  0.49949998  0.99842546    -0.50000
C157        C  0.92955255  0.41650607  0.41981004     0.42600
H158        H  0.06442843  0.47297003  0.11393375     0.06800
N159        N  0.06328217  0.44868945  0.41315140    -0.46700
C160        C  0.24927749  0.25385351  0.21584401     0.45400
H161        H  0.24519278  0.25588479  0.18739277    -0.03600
C162        C  0.25735084  0.25046819  0.28246474     0.45500
H163        H  0.26131298  0.24890390  0.31098599    -0.03600
C164        C  0.27680556  0.27886980  0.22980734    -0.17300
C165        C  0.21633210  0.26370610  0.23593021    -0.17100
C166        C  0.26259852  0.21800888  0.22819946    -0.17400
C167        C  0.28112546  0.27705198  0.26496772    -0.17400
C168        C  0.22043774  0.26196034  0.27150345    -0.17000
C169        C  0.26631730  0.21633750  0.26395553    -0.17300
C170        C  0.74479986  0.25165092  0.21595843     0.45400
H171        H  0.74082019  0.25038810  0.18739971    -0.03600
C172        C  0.75309991  0.25446807  0.28258917     0.45500
H173        H  0.75722514  0.25632822  0.31104931    -0.03600
C174        C  0.72158563  0.27843643  0.23370020    -0.17300
C175        C  0.73551502  0.21749704  0.23439487    -0.17100
C176        C  0.78181313  0.26287956  0.22661396    -0.17400
C177        C  0.72614414  0.28012999  0.26882004    -0.17400
C178        C  0.73877923  0.21898676  0.27016337    -0.17000
C179        C  0.78625021  0.26377667  0.26217259    -0.17300
C180        C  0.25162253  0.74375098  0.21476971     0.45400
H181        H  0.24832940  0.74201177  0.18617172    -0.03600
C182        C  0.25887540  0.74653245  0.28156217     0.45500
H183        H  0.26232145  0.74774671  0.31017872    -0.03600
C184        C  0.27857962  0.71827884  0.22902304    -0.17300
C185        C  0.26485492  0.77935548  0.22766171    -0.17100
C186        C  0.21824976  0.73421702  0.23449391    -0.17400
C187        C  0.28250377  0.71990085  0.26422731    -0.17400
C188        C  0.26838702  0.78075116  0.26338419    -0.17000
C189        C  0.22210766  0.73504015  0.27014226    -0.17300
C190        C  0.74576677  0.75063605  0.21554166     0.45400
H191        H  0.74272445  0.75374848  0.18705245    -0.03600
C192        C  0.75146796  0.74456409  0.28218229     0.45500
H193        H  0.75419396  0.74144684  0.31072443    -0.03600
C194        C  0.72095100  0.72384491  0.23112270    -0.17300
C195        C  0.78198906  0.73729854  0.22693976    -0.17100
C196        C  0.73690084  0.78424989  0.23522727    -0.17400
C197        C  0.72415382  0.72049552  0.26632034    -0.17400
C198        C  0.78497031  0.73495991  0.26269842    -0.17000
C199        C  0.73916477  0.78103445  0.27091350    -0.17300
C200        C  0.09553913  0.60512187  0.09937274    -0.01300
C201        C  0.09770467  0.64081472  0.09272683    -0.09400
C202        C  0.11572200  0.66302115  0.11513897    -0.18200
C203        C  0.13278597  0.65025342  0.14509204     0.04200
C204        C  0.13144184  0.61389015  0.15129953     0.18400
C205        C  0.11255866  0.59186234  0.12882142    -0.19600
C206        C  0.14911388  0.59972923  0.17981604    -0.20900
C207        C  0.16819514  0.62081065  0.20221395    -0.19400
C208        C  0.16957541  0.65675191  0.19716134     0.19800
C209        C  0.15152447  0.67211041  0.16878545     0.01900
C210        C  0.15336804  0.70863156  0.16523353    -0.14200
C211        C  0.17339031  0.72873173  0.18797673    -0.11900
C212        C  0.19175761  0.71342096  0.21532189     0.01400
C213        C  0.18957907  0.67735814  0.21988276    -0.24000
H214        H  0.08484860  0.65197317  0.07034789     0.09400
H215        H  0.11598087  0.69006857  0.10813967     0.13000
H216        H  0.11134503  0.56426838  0.13411411     0.11700
H217        H  0.14844182  0.57205515  0.18466921     0.12900
H218        H  0.18190482  0.60889910  0.22374535     0.12000
H219        H  0.14004322  0.72241762  0.14483853     0.09000
H220        H  0.17537279  0.75641496  0.18359043     0.12300
H221        H  0.20475637  0.66512357  0.24023074     0.14200
C222        C  0.20028358  0.71393632  0.29449706    -0.01300
C223        C  0.21673848  0.69228822  0.31881499    -0.09400
C224        C  0.19786090  0.67004022  0.34001056    -0.18200
C225        C  0.16132042  0.66839015  0.33789518     0.04200
C226        C  0.14432035  0.69100190  0.31405343     0.18400
C227        C  0.16382423  0.71350061  0.29267447    -0.19600
C228        C  0.10800133  0.69075202  0.31156804    -0.20900
C229        C  0.08824925  0.66854782  0.33217888    -0.19400
C230        C  0.10429689  0.64571384  0.35556155     0.19800
C231        C  0.14113400  0.64512346  0.35860863     0.01900
C232        C  0.15614480  0.62102992  0.38208145    -0.14200
C233        C  0.13544660  0.59883542  0.40187217    -0.11900
C234        C  0.09933390  0.59992684  0.39904336     0.01400
C235        C  0.08377921  0.62330732  0.37588728    -0.24000
H236        H  0.24467425  0.69156724  0.32118023     0.09400
H237        H  0.21283901  0.65433106  0.35768977     0.13000
H238        H  0.15068254  0.73035295  0.27432518     0.11700
H239        H  0.09475701  0.70786558  0.29355395     0.12900
H240        H  0.06018244  0.66909025  0.32965217     0.12000
H241        H  0.18380297  0.61845746  0.38566554     0.09000
H242        H  0.14772505  0.58072245  0.41958574     0.12300
H243        H  0.05566893  0.62391351  0.37364534     0.14200
C244        C  0.09936334  0.39609219  0.40194667    -0.01300
C245        C  0.08228162  0.37864604  0.37503110    -0.09400
C246        C  0.09996756  0.35434640  0.35468617    -0.18200
C247        C  0.13565374  0.34732522  0.36039712     0.04200
C248        C  0.15281763  0.36579316  0.38749384     0.18400
C249        C  0.13442092  0.38929028  0.40835894    -0.19600
C250        C  0.18840704  0.36118046  0.39328277    -0.20900
C251        C  0.20767411  0.33941464  0.37209832    -0.19400
C252        C  0.19163261  0.32080598  0.34531450     0.19800
C253        C  0.15523749  0.32352372  0.33968356     0.01900
C254        C  0.14032198  0.30251647  0.31341807    -0.14200
C255        C  0.16107548  0.28118191  0.29254232    -0.11900
C256        C  0.19732810  0.28057452  0.29663730     0.01400
C257        C  0.21213248  0.30004623  0.32367977    -0.24000
H258        H  0.05497774  0.38351366  0.37004714     0.09400
H259        H  0.08526988  0.34197764  0.33431296     0.13000
H260        H  0.14753122  0.40282673  0.42931056     0.11700
H261        H  0.20162929  0.37518011  0.41382715     0.12900
H262        H  0.23540574  0.33715870  0.37667853     0.12000
H263        H  0.11274535  0.30204950  0.30843555     0.09000
H264        H  0.14879505  0.26578103  0.27246902     0.12300
H265        H  0.24003011  0.30040665  0.32730817     0.14200
C266        C  0.19116678  0.28705466  0.21775333    -0.01300
C267        C  0.19034259  0.32257376  0.22547796    -0.09400
C268        C  0.17148110  0.34578321  0.20480075    -0.18200
C269        C  0.15322366  0.33432175  0.17498458     0.04200
C270        C  0.15414835  0.29824933  0.16727572     0.18400
C271        C  0.17294427  0.27513964  0.18859379    -0.19600
C272        C  0.13707471  0.28554962  0.13778102    -0.20900
C273        C  0.11938670  0.30787330  0.11549045    -0.19400
C274        C  0.11807395  0.34353496  0.12214591     0.19800
C275        C  0.13471590  0.35730456  0.15214886     0.01900
C276        C  0.13213617  0.39346968  0.15781305    -0.14200
C277        C  0.11380423  0.41488163  0.13479803    -0.11900
C278        C  0.09751496  0.40125250  0.10521236     0.01400
C279        C  0.10001747  0.36548133  0.09898976    -0.24000
H280        H  0.20555208  0.33271220  0.24688409     0.09400
H281        H  0.17252762  0.37266273  0.21229115     0.13000
H282        H  0.17440348  0.24788182  0.18186267     0.11700
H283        H  0.13768955  0.25812495  0.13169263     0.12900
H284        H  0.10666165  0.29713059  0.09278074     0.12000
H285        H  0.14379406  0.40600477  0.17994589     0.09000
H286        H  0.11243462  0.44236283  0.14030623     0.12300
H287        H  0.08733588  0.35452422  0.07635175     0.14200
C288        C  0.80344535  0.28365155  0.20171985    -0.01300
C289        C  0.78679657  0.30599777  0.17818314    -0.09400
C290        C  0.80555420  0.32799333  0.15655830    -0.18200
C291        C  0.84219137  0.32860836  0.15737409     0.04200
C292        C  0.85935335  0.30525132  0.18037654     0.18400
C293        C  0.83996028  0.28308775  0.20227236    -0.19600
C294        C  0.89573504  0.30453971  0.18163218    -0.20900
C295        C  0.91538218  0.32678936  0.16094550    -0.19400
C296        C  0.89919535  0.35057604  0.13863027     0.19800
C297        C  0.86231218  0.35178062  0.13641625     0.01900
C298        C  0.84720208  0.37649313  0.11364646    -0.14200
C299        C  0.86782796  0.39918480  0.09429450    -0.11900
C300        C  0.90397133  0.39793111  0.09677334     0.01400
C301        C  0.91963246  0.37344805  0.11870071    -0.24000
H302        H  0.75881496  0.30745929  0.17683763     0.09400
H303        H  0.79043736  0.34440164  0.13970196     0.13000
H304        H  0.85323317  0.26576851  0.22007079     0.11700
H305        H  0.90911527  0.28679080  0.19891238     0.12900
H306        H  0.94347997  0.32565111  0.16271389     0.12000
H307        H  0.81954973  0.37923175  0.11036809     0.09000
H308        H  0.85545538  0.41785846  0.07724151     0.12300
H309        H  0.94775365  0.37245113  0.12042642     0.14200
C310        C  0.90942626  0.39346475  0.39601542    -0.01300
C311        C  0.90607715  0.35803834  0.40347186    -0.09400
C312        C  0.88844650  0.33569109  0.38093701    -0.18200
C313        C  0.87293204  0.34803976  0.35000089     0.04200
C314        C  0.87552666  0.38414851  0.34281276     0.18400
C315        C  0.89410578  0.40631656  0.36543653    -0.19600
C316        C  0.85916201  0.39792856  0.31332982    -0.20900
C317        C  0.83977017  0.37677712  0.29122232    -0.19400
C318        C  0.83700820  0.34107676  0.29741309     0.19800
C319        C  0.85425024  0.32603017  0.32643394     0.01900
C320        C  0.85161023  0.28965786  0.33081566    -0.14200
C321        C  0.83126121  0.26947420  0.30846925    -0.11900
C322        C  0.81323791  0.28453029  0.28076267     0.01400
C323        C  0.81640427  0.32042461  0.27524296    -0.24000
H324        H  0.91756602  0.34717015  0.42671681     0.09400
H325        H  0.88703367  0.30890679  0.38875226     0.13000
H326        H  0.89624192  0.43370146  0.35945937     0.11700
H327        H  0.86084720  0.42540033  0.30765190     0.12900
H328        H  0.82685346  0.38844041  0.26908092     0.12000
H329        H  0.86460849  0.27605085  0.35154011     0.09000
H330        H  0.82867542  0.24194998  0.31350960     0.12300
H331        H  0.80158478  0.33256552  0.25459052     0.14200
C332        C  0.81046960  0.71308791  0.28201223    -0.01300
C333        C  0.82770833  0.72694846  0.31082399    -0.09400
C334        C  0.84716830  0.70575787  0.33306362    -0.18200
C335        C  0.84981336  0.66959286  0.32730215     0.04200
C336        C  0.83278337  0.65574204  0.29757133     0.18400
C337        C  0.81292395  0.67733935  0.27569456    -0.19600
C338        C  0.83518164  0.62029419  0.29017553    -0.20900
C339        C  0.85422503  0.59821773  0.31160135    -0.19400
C340        C  0.87080039  0.61082871  0.34143848     0.19800
C341        C  0.86848215  0.64664303  0.34998608     0.01900
C342        C  0.88459547  0.65775127  0.38109669    -0.14200
C343        C  0.90267554  0.63448091  0.40237348    -0.11900
C344        C  0.90575076  0.59939072  0.39342157     0.01400
C345        C  0.88957667  0.58775450  0.36287596    -0.24000
H346        H  0.82535420  0.75432466  0.31664918     0.09400
H347        H  0.85962369  0.71843947  0.35467600     0.13000
H348        H  0.79845583  0.66614166  0.25427027     0.11700
H349        H  0.82234238  0.60956475  0.26753211     0.12900
H350        H  0.85572040  0.57096484  0.30494195     0.12000
H351        H  0.88352570  0.68424775  0.38985977     0.09000
H352        H  0.91475527  0.64423079  0.42583847     0.12300
H353        H  0.89138074  0.56062756  0.35580811     0.14200
C354        C  0.80403421  0.71697024  0.20170486    -0.01300
C355        C  0.78808875  0.70043562  0.17324541    -0.09400
C356        C  0.80673590  0.67894544  0.15096757    -0.18200
C357        C  0.84222107  0.67187863  0.15677923     0.04200
C358        C  0.85849959  0.68796220  0.18578220     0.18400
C359        C  0.83983616  0.71137197  0.20691095    -0.19600
C360        C  0.89297284  0.67965434  0.19413947    -0.20900
C361        C  0.91131754  0.65528593  0.17473226    -0.19400
C362        C  0.89622490  0.63967123  0.14551248     0.19800
C363        C  0.86177435  0.64857881  0.13548044     0.01900
C364        C  0.84859213  0.63411318  0.10431319    -0.14200
C365        C  0.86860567  0.61140776  0.08434734    -0.11900
C366        C  0.90185319  0.60156567  0.09517155     0.01400
C367        C  0.91554578  0.61564289  0.12585563    -0.24000
H368        H  0.76051771  0.70272937  0.16846139     0.09400
H369        H  0.79213234  0.66685117  0.13036399     0.13000
H370        H  0.85295360  0.72410277  0.22830376     0.11700
H371        H  0.90556919  0.69143329  0.21639547     0.12900
H372        H  0.93769304  0.64894405  0.18237971     0.12000
H373        H  0.82329043  0.64061973  0.09416016     0.09000
H374        H  0.85798747  0.60134060  0.06030379     0.12300
H375        H  0.94174723  0.60879941  0.13373986     0.14200
C376        C  0.60627120  0.09716820  0.40378933    -0.01300
C377        C  0.61777746  0.12949053  0.41537186    -0.09400
C378        C  0.63979171  0.14974401  0.39485845    -0.18200
C379        C  0.65182001  0.13769619  0.36230751     0.04200
C380        C  0.64142568  0.10402323  0.35151417     0.18400
C381        C  0.61808954  0.08450809  0.37182205    -0.19600
C382        C  0.65478757  0.08994883  0.32079893    -0.20900
C383        C  0.67844820  0.10855033  0.30068114    -0.19400
C384        C  0.68819216  0.14232617  0.30991071     0.19800
C385        C  0.67419355  0.15762139  0.34037464     0.01900
C386        C  0.68238396  0.19256565  0.34711769    -0.14200
C387        C  0.70340143  0.21153123  0.32466342    -0.11900
C388        C  0.71829381  0.19648095  0.29494680     0.01400
C389        C  0.71114452  0.16124578  0.28843767    -0.24000
H390        H  0.60937781  0.13929160  0.44031475     0.09400
H391        H  0.64768240  0.17430612  0.40560615     0.13000
H392        H  0.60989127  0.05899044  0.36327457     0.11700
H393        H  0.64727661  0.06415119  0.31253268     0.12900
H394        H  0.68857978  0.09672377  0.27730294     0.12000
H395        H  0.67163382  0.20653693  0.36877166     0.09000
H396        H  0.70677713  0.23867356  0.33056360     0.12300
H397        H  0.72262265  0.14866235  0.26614520     0.14200
C398        C  0.71325945  0.19264672  0.21482506    -0.01300
C399        C  0.72764061  0.17307423  0.18796916    -0.09400
C400        C  0.70646948  0.15332866  0.16594808    -0.18200
C401        C  0.66984364  0.15304684  0.16978127     0.04200
C402        C  0.65545662  0.17255636  0.19756039     0.18400
C403        C  0.67711414  0.19227310  0.21950249    -0.19600
C404        C  0.61948188  0.17268009  0.20296567    -0.20900
C405        C  0.59739149  0.15364148  0.18154763    -0.19400
C406        C  0.61057633  0.13451534  0.15366776     0.19800
C407        C  0.64696373  0.13435375  0.14703709     0.01900
C408        C  0.65872421  0.11586697  0.11764979    -0.14200
C409        C  0.63550395  0.09778435  0.09631867    -0.11900
C410        C  0.59981291  0.09699113  0.10358985     0.01400
C411        C  0.58752656  0.11562392  0.13229043    -0.24000
H412        H  0.75544570  0.17360160  0.18360983     0.09400
H413        H  0.71953083  0.13882913  0.14598774     0.13000
H414        H  0.66579672  0.20817119  0.23973546     0.11700
H415        H  0.60833466  0.18748945  0.22407130     0.12900
H416        H  0.56970967  0.15410418  0.18668347     0.12000
H417        H  0.68570733  0.11503879  0.11029817     0.09000
H418        H  0.64575836  0.08379837  0.07424960     0.12300
H419        H  0.55994273  0.11561823  0.13793562     0.14200
C420        C  0.28164280  0.19489074  0.20301751    -0.01300
C421        C  0.29678924  0.20966437  0.17327695    -0.09400
C422        C  0.31723551  0.19029380  0.15081603    -0.18200
C423        C  0.32482838  0.15526401  0.15771863     0.04200
C424        C  0.31041886  0.14013436  0.18810493     0.18400
C425        C  0.28768095  0.15942040  0.20942350    -0.19600
C426        C  0.31991144  0.10634144  0.19760149    -0.20900
C427        C  0.34395533  0.08771813  0.17796369    -0.19400
C428        C  0.35782695  0.10173953  0.14738871     0.19800
C429        C  0.34738109  0.13526462  0.13619037     0.01900
C430        C  0.35968399  0.14723480  0.10370976    -0.14200
C431        C  0.38223682  0.12719086  0.08374123    -0.11900
C432        C  0.39398636  0.09512016  0.09574878     0.01400
C433        C  0.38174465  0.08239376  0.12760283    -0.24000
H434        H  0.29440212  0.23694652  0.16751068     0.09400
H435        H  0.32839505  0.20415236  0.12925498     0.13000
H436        H  0.27609246  0.14720327  0.23189893     0.11700
H437        H  0.30947618  0.09462405  0.22092286     0.12900
H438        H  0.35142037  0.06199909  0.18651788     0.12000
H439        H  0.35158538  0.17156802  0.09255309     0.09000
H440        H  0.39083495  0.13695522  0.05881733     0.12300
H441        H  0.39003122  0.05699465  0.13641557     0.14200
C442        C  0.28968792  0.19202761  0.28304672    -0.01300
C443        C  0.32488634  0.18944248  0.27415636    -0.09400
C444        C  0.34807892  0.17044195  0.29465745    -0.18200
C445        C  0.33702388  0.15417248  0.32566288     0.04200
C446        C  0.30143208  0.15757410  0.33502975     0.18400
C447        C  0.27822869  0.17621308  0.31369102    -0.19600
C448        C  0.28936957  0.14302639  0.36604375    -0.20900
C449        C  0.31188070  0.12523165  0.38808686    -0.19400
C450        C  0.34700207  0.12116235  0.37954491     0.19800
C451        C  0.36007233  0.13533685  0.34808104     0.01900
C452        C  0.39563437  0.12997416  0.34048359    -0.14200
C453        C  0.41716789  0.11136215  0.36309492    -0.11900
C454        C  0.40422114  0.09740271  0.39406013     0.01400
C455        C  0.36907791  0.10269799  0.40220757    -0.24000
H456        H  0.33479374  0.20309389  0.25167311     0.09400
H457        H  0.37465947  0.16988157  0.28605614     0.13000
H458        H  0.25131833  0.17929427  0.32138848     0.11700
H459        H  0.26234562  0.14565765  0.37345898     0.12900
H460        H  0.30169029  0.11445014  0.41196301     0.12000
H461        H  0.40755979  0.13950094  0.31711249     0.09000
H462        H  0.44413564  0.10777919  0.35602418     0.12300
H463        H  0.35866041  0.09189202  0.42598122     0.14200
C464        C  0.60098535  0.90583287  0.10575884    -0.01300
C465        C  0.63624122  0.90325838  0.09702220    -0.09400
C466        C  0.65977074  0.88580166  0.11853373    -0.18200
C467        C  0.64878982  0.86980507  0.14967139     0.04200
C468        C  0.61292800  0.87219275  0.15836067     0.18400
C469        C  0.58955115  0.89024367  0.13661064    -0.19600
C470        C  0.60054373  0.85627766  0.18857509    -0.20900
C471        C  0.62279805  0.83742620  0.20999412    -0.19400
C472        C  0.65815613  0.83434625  0.20206107     0.19800
C473        C  0.67186533  0.85098811  0.17212635     0.01900
C474        C  0.70793057  0.84742808  0.16570978    -0.14200
C475        C  0.72908864  0.82730180  0.18740224    -0.11900
C476        C  0.71531770  0.81035762  0.21636237     0.01400
C477        C  0.67971625  0.81392571  0.22343996    -0.24000
H478        H  0.64589242  0.91511878  0.07345364     0.09400
H479        H  0.68639080  0.88506368  0.10987455     0.13000
H480        H  0.56235244  0.89188905  0.14365974     0.11700
H481        H  0.57330251  0.85800872  0.19545651     0.12900
H482        H  0.61220845  0.82496835  0.23287069     0.12000
H483        H  0.72052095  0.85946311  0.14383354     0.09000
H484        H  0.75631815  0.82417889  0.18101351     0.12300
H485        H  0.66847262  0.79968463  0.24493637     0.14200
C486        C  0.60660247  0.90337197  0.40351884    -0.01300
C487        C  0.61241036  0.86864336  0.41187311    -0.09400
C488        C  0.63440005  0.84818353  0.39159875    -0.18200
C489        C  0.65200432  0.86219991  0.36251109     0.04200
C490        C  0.64689865  0.89790765  0.35486948     0.18400
C491        C  0.62380803  0.91794618  0.37495577    -0.19600
C492        C  0.66515416  0.91338654  0.32748662    -0.20900
C493        C  0.68839333  0.89417008  0.30750871    -0.19400
C494        C  0.69327925  0.85869968  0.31369517     0.19800
C495        C  0.67469827  0.84217977  0.34098513     0.01900
C496        C  0.67905232  0.80613457  0.34512798    -0.14200
C497        C  0.70047705  0.78725953  0.32305386    -0.11900
C498        C  0.71911974  0.80326872  0.29609643     0.01400
C499        C  0.71595295  0.83943024  0.29224811    -0.24000
H500        H  0.59965738  0.85719369  0.43415377     0.09400
H501        H  0.63759125  0.82168121  0.39983055     0.13000
H502        H  0.61979494  0.94511710  0.36888976     0.11700
H503        H  0.66163955  0.94065343  0.32163836     0.12900
H504        H  0.70217835  0.90702856  0.28665603     0.12000
H505        H  0.66529466  0.79140940  0.36448081     0.09000
H506        H  0.70121808  0.75954146  0.32681790     0.12300
H507        H  0.73022181  0.85243121  0.27182231     0.14200
C508        C  0.40475004  0.90228930  0.39340951    -0.01300
C509        C  0.41776328  0.88896764  0.36219506    -0.09400
C510        C  0.39659350  0.86972772  0.33973135    -0.18200
C511        C  0.36133285  0.86303461  0.34770738     0.04200
C512        C  0.34826395  0.87636099  0.37951953     0.18400
C513        C  0.36994127  0.89557452  0.40197030    -0.19600
C514        C  0.31351974  0.87066539  0.38865339    -0.20900
C515        C  0.29134939  0.85220075  0.36683561    -0.19400
C516        C  0.30331798  0.83873426  0.33533624     0.19800
C517        C  0.33855210  0.84372526  0.32534846     0.01900
C518        C  0.34946284  0.82867688  0.29370262    -0.14200
C519        C  0.32646496  0.80939968  0.27315193    -0.11900
C520        C  0.29155598  0.80522355  0.28271078     0.01400
C521        C  0.28032852  0.81975868  0.31404440    -0.24000
H522        H  0.44448495  0.89354415  0.35480267     0.09400
H523        H  0.40854801  0.86071181  0.31617947     0.13000
H524        H  0.35947679  0.90575468  0.42597611     0.11700
H525        H  0.30334315  0.88069852  0.41283354     0.12900
H526        H  0.26460561  0.84834027  0.37473404     0.12000
H527        H  0.37580586  0.83056639  0.28453706     0.09000
H528        H  0.33638263  0.79678250  0.25012871     0.12300
H529        H  0.25370587  0.81555474  0.32223445     0.14200
C530        C  0.28310584  0.80342256  0.20303143    -0.01300
C531        C  0.28466871  0.83933314  0.20862992    -0.09400
C532        C  0.30544352  0.86064478  0.18760785    -0.18200
C533        C  0.32487456  0.84670092  0.15970419     0.04200
C534        C  0.32132497  0.81071403  0.15284438     0.18400
C535        C  0.30115751  0.78964764  0.17456157    -0.19600
C536        C  0.33844747  0.79561507  0.12465128    -0.20900
C537        C  0.35940484  0.81544961  0.10310236    -0.19400
C538        C  0.36465441  0.85068092  0.10980955     0.19800
C539        C  0.34782872  0.86685128  0.13844546     0.01900
C540        C  0.35554999  0.90214386  0.14497458    -0.14200
C541        C  0.37896057  0.92038868  0.12398178    -0.11900
C542        C  0.39470334  0.90434727  0.09551530     0.01400
C543        C  0.38718461  0.86968245  0.08830635    -0.24000
H544        H  0.27044324  0.85086652  0.22989026     0.09400
H545        H  0.30576277  0.88790916  0.19374171     0.13000
H546        H  0.30077442  0.76203091  0.16970875     0.11700
H547        H  0.33559668  0.76818406  0.11919494     0.12900
H548        H  0.37220135  0.80295475  0.08144704     0.12000
H549        H  0.34445895  0.91607283  0.16650001     0.09000
H550        H  0.38453467  0.94731438  0.12977161     0.12300
H551        H  0.39956650  0.85728218  0.06632643     0.14200
C552        C  0.30534001  0.69683067  0.28420894    -0.01300
C553        C  0.30159410  0.66095388  0.28127446    -0.09400
C554        C  0.32279067  0.63880974  0.30033648    -0.18200
C555        C  0.34851809  0.65214667  0.32295636     0.04200
C556        C  0.35201366  0.68879832  0.32568649     0.18400
C557        C  0.33020504  0.71072867  0.30657488    -0.19600
C558        C  0.37716742  0.70334466  0.34749925    -0.20900
C559        C  0.39886441  0.68223309  0.36706284    -0.19400
C560        C  0.39566485  0.64614479  0.36542253     0.19800
C561        C  0.37056629  0.63050201  0.34326122     0.01900
C562        C  0.36826958  0.59389172  0.34288678    -0.14200
C563        C  0.38895373  0.57384180  0.36474277    -0.11900
C564        C  0.41279743  0.58956164  0.38714022     0.01400
C565        C  0.41680794  0.62558782  0.38665125    -0.24000
H566        H  0.28182662  0.65004742  0.26442134     0.09400
H567        H  0.31827509  0.61148242  0.29675627     0.13000
H568        H  0.33278107  0.73865506  0.30874791     0.11700
H569        H  0.37998270  0.73124512  0.34954035     0.17400
H570        H  0.41797100  0.69422315  0.38395381     0.12000
H571        H  0.35030190  0.57989927  0.32659942     0.09000
H572        H  0.38585824  0.54593830  0.36445626     0.12300
H573        H  0.43532010  0.63784529  0.40403182     0.14200
C574        C  0.29961435  0.69568331  0.20681638    -0.01300
C575        C  0.33564062  0.69964023  0.20659047    -0.09400
C576        C  0.35634020  0.67715657  0.18755972    -0.18200
C577        C  0.34137869  0.64978380  0.16819244     0.04200
C578        C  0.30458723  0.64589459  0.16879927     0.18400
C579        C  0.28404641  0.66908329  0.18779895    -0.19600
C580        C  0.28857637  0.61902002  0.15035105    -0.20900
C581        C  0.30826160  0.59652360  0.13024683    -0.19400
C582        C  0.34436909  0.60047164  0.12810143     0.19800
C583        C  0.36152634  0.62673670  0.14759187     0.01900
C584        C  0.39805159  0.62948933  0.14474891    -0.14200
C585        C  0.41636573  0.60876739  0.12168101    -0.11900
C586        C  0.39913855  0.58416614  0.10137962     0.01400
C587        C  0.36335207  0.57917251  0.10553971    -0.24000
H588        H  0.34779585  0.72023429  0.22142431     0.09400
H589        H  0.38387799  0.68200277  0.18863522     0.13000
H590        H  0.25604815  0.66604355  0.18841877     0.11700
H591        H  0.26059838  0.61571898  0.15104682     0.12900
H592        H  0.29507670  0.57639090  0.11567034     0.12000
H593        H  0.41323976  0.64799224  0.15919163     0.09000
H594        H  0.44417442  0.61250764  0.11920790     0.12300
H595        H  0.34993836  0.56000775  0.08989270     0.14200
C596        C  0.59736537  0.59626956  0.39850890    -0.01300
C597        C  0.58113303  0.61999555  0.37637557    -0.09400
C598        C  0.60048809  0.63918008  0.35271288    -0.18200
C599        C  0.63702165  0.63555008  0.35088782     0.04200
C600        C  0.65319572  0.61045973  0.37263952     0.18400
C601        C  0.63324048  0.59084957  0.39587657    -0.19600
C602        C  0.68926247  0.60577405  0.37178279    -0.20900
C603        C  0.70986181  0.62627589  0.35046946    -0.19400
C604        C  0.69481659  0.65177740  0.32942817     0.19800
C605        C  0.65810915  0.65644915  0.32890057     0.01900
C606        C  0.64417869  0.68237502  0.30692116    -0.14200
C607        C  0.66579948  0.70289170  0.28664462    -0.11900
C608        C  0.70175080  0.69827022  0.28764948     0.01400
C609        C  0.71627532  0.67293299  0.30908255    -0.24000
H610        H  0.55330389  0.62404681  0.37749179     0.09400
H611        H  0.58605530  0.65704472  0.33675671     0.13000
H612        H  0.64588079  0.57227658  0.41287355     0.11700
H613        H  0.70168652  0.58655298  0.38817869     0.12900
H614        H  0.73778145  0.62244020  0.35074167     0.12000
H615        H  0.61677611  0.68766735  0.30485757     0.09000
H616        H  0.65444856  0.72281148  0.27031198     0.12300
H617        H  0.74425768  0.66956446  0.30966421     0.14200
C618        C  0.58298922  0.59888721  0.11086332    -0.01300
C619        C  0.57710476  0.63465064  0.11212739    -0.09400
C620        C  0.59811488  0.65595923  0.13236769    -0.18200
C621        C  0.62563707  0.64195512  0.15222820     0.04200
C622        C  0.62961783  0.60530222  0.15304064     0.18400
C623        C  0.60868891  0.58419831  0.13198139    -0.19600
C624        C  0.65483908  0.59005509  0.17436271    -0.20900
C625        C  0.67667286  0.61055517  0.19450390    -0.19400
C626        C  0.67456916  0.64672898  0.19275752     0.19800
C627        C  0.64937881  0.66301261  0.17117827     0.01900
C628        C  0.64978961  0.69963524  0.16862654    -0.14200
C629        C  0.67356909  0.71922318  0.18760311    -0.11900
C630        C  0.69709269  0.70296874  0.20985776     0.01400
C631        C  0.69786286  0.66680798  0.21210905    -0.24000
H632        H  0.55709490  0.64657311  0.09632648     0.09400
H633        H  0.59218270  0.68326043  0.13186983     0.13000
H634        H  0.61275868  0.55637260  0.13155698     0.11700
H635        H  0.65770061  0.56211848  0.17544943     0.12900
H636        H  0.69588530  0.59806188  0.21091145     0.12000
H637        H  0.63255210  0.71385945  0.15174628     0.09000
H638        H  0.67319174  0.74721941  0.18534888     0.12300
H639        H  0.71693969  0.65435338  0.22874584     0.14200
C640        C  0.70503444  0.30223147  0.29145593    -0.01300
C641        C  0.66916428  0.29714810  0.29267720    -0.09400
C642        C  0.64827395  0.31908657  0.31214809    -0.18200
C643        C  0.66286919  0.34711267  0.33084820     0.04200
C644        C  0.69946085  0.35228135  0.32902666     0.18400
C645        C  0.72025337  0.32947377  0.30981688    -0.19600
C646        C  0.71497913  0.38029526  0.34613692    -0.20900
C647        C  0.69498533  0.40305638  0.36563059    -0.19400
C648        C  0.65911470  0.39797119  0.36891915     0.19800
C649        C  0.64251163  0.36998122  0.35145870     0.01900
C650        C  0.60635354  0.36555067  0.35611505    -0.14200
C651        C  0.58783262  0.38706233  0.37827455    -0.11900
C652        C  0.60446385  0.41390222  0.39613009     0.01400
C653        C  0.63988868  0.41996720  0.39060471    -0.24000
H654        H  0.65727070  0.27612429  0.27823962     0.09400
H655        H  0.62086177  0.31357191  0.31160660     0.13000
H656        H  0.74810958  0.33345645  0.30826971     0.11700
H657        H  0.74278727  0.38456002  0.34452171     0.12900
H658        H  0.70777863  0.42436230  0.37882053     0.12000
H659        H  0.59168932  0.34515966  0.34388750     0.09000
H660        H  0.56035572  0.38213834  0.38203607     0.12300
H661        H  0.65292900  0.44064861  0.40452370     0.14200
C662        C  0.69826912  0.30141099  0.21422339    -0.01300
C663        C  0.70200217  0.33727042  0.21718780    -0.09400
C664        C  0.68064212  0.35940377  0.19834723    -0.18200
C665        C  0.65481845  0.34606378  0.17584551     0.04200
C666        C  0.65093618  0.30943360  0.17350867     0.18400
C667        C  0.67293404  0.28750821  0.19238370    -0.19600
C668        C  0.62537919  0.29491649  0.15213535    -0.20900
C669        C  0.60396017  0.31605384  0.13228119    -0.19400
C670        C  0.60793343  0.35210017  0.13312291     0.19800
C671        C  0.63322510  0.36769696  0.15509485     0.01900
C672        C  0.63641424  0.40423255  0.15460865    -0.14200
C673        C  0.61641392  0.42422104  0.13211391    -0.11900
C674        C  0.59236191  0.40854288  0.10992486     0.01400
C675        C  0.58747055  0.37263787  0.11122067    -0.24000
H676        H  0.72199054  0.34818376  0.23378325     0.09400
H677        H  0.68519074  0.38671045  0.20193236     0.13000
H678        H  0.67026871  0.25962107  0.19025091     0.11700
H679        H  0.62215754  0.26703890  0.15052933     0.12900
H680        H  0.58463068  0.30409885  0.11562027     0.12000
H681        H  0.65464240  0.41819525  0.17060845     0.09000
H682        H  0.62017227  0.45204529  0.13180747     0.12300
H683        H  0.56877066  0.36042271  0.09400713     0.14200
C684        C  0.41826947  0.40134560  0.38711462    -0.01300
C685        C  0.39076572  0.41755930  0.36974142    -0.09400
C686        C  0.36925057  0.39887706  0.34748364    -0.18200
C687        C  0.37431520  0.36295817  0.34231299     0.04200
C688        C  0.40284311  0.34677784  0.35943733     0.18400
C689        C  0.42480316  0.36615346  0.38117413    -0.19600
C690        C  0.40851632  0.31112667  0.35580729    -0.20900
C691        C  0.38563614  0.29086154  0.33659495    -0.19400
C692        C  0.35694636  0.30590404  0.32005419     0.19800
C693        C  0.35140474  0.34233385  0.32179173     0.01900
C694        C  0.32281045  0.35641141  0.30336428    -0.14200
C695        C  0.30020392  0.33503467  0.28492667    -0.11900
C696        C  0.30524155  0.29923162  0.28451646     0.01400
C697        C  0.33353897  0.28468993  0.30193925    -0.24000
H698        H  0.38539891  0.44482524  0.37389252     0.09400
H699        H  0.34831032  0.41314484  0.33563955     0.13000
H700        H  0.44592353  0.35336959  0.39473699     0.11700
H701        H  0.43027251  0.29867260  0.36868264     0.12900
H702        H  0.39021171  0.26318075  0.33494588     0.12000
H703        H  0.31722565  0.38372991  0.30252452     0.09000
H704        H  0.27841882  0.34643329  0.27113092     0.12300
H705        H  0.33751450  0.25690689  0.30102518     0.14200
C706        C  0.40479309  0.40088059  0.09638274    -0.01300
C707        C  0.36922181  0.40813074  0.09779492    -0.09400
C708        C  0.34739469  0.38921371  0.11939516    -0.18200
C709        C  0.36064571  0.36238380  0.14061015     0.04200
C710        C  0.39706365  0.35595779  0.14000653     0.18400
C711        C  0.41870050  0.37499544  0.11776287    -0.19600
C712        C  0.41162326  0.33052449  0.16149905    -0.20900
C713        C  0.39072698  0.31121732  0.18362776    -0.19400
C714        C  0.35475363  0.31649591  0.18427272     0.19800
C715        C  0.33907553  0.34185347  0.16247447     0.01900
C716        C  0.30241073  0.34516048  0.16311431    -0.14200
C717        C  0.28234031  0.32449072  0.18489098    -0.11900
C718        C  0.29815353  0.30052919  0.20689478     0.01400
C719        C  0.33422938  0.29633626  0.20642560    -0.24000
H720        H  0.35796540  0.42825042  0.08164080     0.09400
H721        H  0.32039613  0.39642951  0.11897253     0.13000
H722        H  0.44634009  0.36965883  0.11716747     0.11700
H723        H  0.43935836  0.32561971  0.16128317     0.12900
H724        H  0.40273325  0.29181968  0.20011535     0.12000
H725        H  0.28838309  0.36300540  0.14683516     0.09000
H726        H  0.25433095  0.32744036  0.18476500     0.12300
H727        H  0.34618441  0.27694469  0.22299286     0.14200
C728        C  0.42680507  0.41995122  0.57179401     0.42400
N729        N  0.44069536  0.45467452  0.53086024     0.01300
C730        C  0.59523012  0.46450289  0.94137047    -0.06600
H731        H  0.60654237  0.47898268  0.57667144     0.06800
C732        C  0.53306720  0.58732690  0.56624600    -0.06900
Co733      Co  0.50814214  0.43636520  0.49829595     0.74200
N734        N  0.56490919  0.46666962  0.54129546    -0.26100
Co735      Co  0.56543138  0.50557821  0.00444121     0.74100
C736        C  0.56415354  0.57744454  0.58555361     0.42500
N737        N  0.45528662  0.55702423  0.53374749     0.00900
N738        N  0.55767120  0.54293407  0.54253695     0.01000
N739        N  0.55635143  0.42053970  0.93813624    -0.47000
H740        H  0.47723963  0.38829471  0.56515896     0.06800
N741        N  0.54328129  0.44025710  0.53890044     0.01300
N742        N  0.56426800  0.54435446  0.96720287     0.01000
C743        C  0.57714753  0.57830846  0.92535703     0.42700
N744        N  0.43328283  0.53093424  0.53122288    -0.25600
C745        C  0.46934643  0.41035264  0.93214114    -0.06500
N746        N  0.41590033  0.44766766  0.55343009    -0.46700
N747        N  0.58869911  0.55109085  0.94408113    -0.46900
C748        C  0.43790145  0.42082417  0.91350607     0.42400
N749        N  0.54884941  0.44203196  0.96366023     0.01300
N750        N  0.44002583  0.53187406  0.95611286    -0.25600
N751        N  0.46703539  0.43290055  0.53289050    -0.26100
N752        N  0.46161352  0.55831181  0.95846831     0.00900
H753        H  0.39894249  0.51911235  0.92023861     0.06800
H754        H  0.52639304  0.60941751  0.93195059     0.06900
N755        N  0.57106731  0.46799571  0.96614879    -0.26100
N756        N  0.53128162  0.56459202  0.54017796    -0.25700
N757        N  0.44659156  0.45577755  0.95572131     0.01300
C758        C  0.57414270  0.42915002  0.58365280     0.42700
C759        C  0.40874899  0.53440589  0.55559308    -0.07000
N760        N  0.53768056  0.56580843  0.96510553    -0.25700
H761        H  0.51544795  0.60877122  0.57029250     0.06800
N762        N  0.54822541  0.41690724  0.56350726    -0.47000
H763        H  0.38701114  0.51709363  0.55963189     0.06800
C764        C  0.43137082  0.56890011  0.91314623     0.42500
C765        C  0.46074700  0.40993159  0.55822171    -0.06500
Co766      Co  0.43935528  0.49325177  0.49338176     0.73800
N767        N  0.44733779  0.57863058  0.55908200    -0.46700
C768        C  0.58511744  0.43309387  0.92272546     0.42800
N769        N  0.42512528  0.44894969  0.92980578    -0.46700
Co770      Co  0.49633205  0.56227616  0.99938591     0.73900
C771        C  0.54339052  0.58831629  0.93930187    -0.07000
C772        C  0.58544964  0.46209785  0.56895360    -0.06600
N773        N  0.47256988  0.43362471  0.95777014    -0.26100
N774        N  0.57827643  0.54989801  0.56920505    -0.46800
H775        H  0.61704529  0.48168085  0.93717588     0.06800
C776        C  0.41990431  0.53610696  0.92808989    -0.07000
Cl777      Cl  0.50234776  0.49935061  0.49887297    -0.50000
C778        C  0.41844025  0.56590223  0.57416299     0.42600
H779        H  0.48619963  0.38831995  0.92799782     0.06800
N780        N  0.45699341  0.58138558  0.93353542    -0.46700
C781        C  0.57684754  0.92576107  0.58301137     0.42400
N782        N  0.56115576  0.96250709  0.54382658     0.01300
C783        C  0.40939518  0.06043163  0.53956088    -0.06600
H784        H  0.38726607  0.93429009  0.52321033     0.06800
C785        C  0.46097204  0.93924597  0.90784559    -0.06900
Co786      Co  0.49579243  0.99995615  0.56335959     0.74200
N787        N  0.43498222  0.96210888  0.53303603    -0.26100
Co788      Co  0.43743046  0.99983701  0.49405165     0.74100
C789        C  0.42699933  0.92428926  0.91618587     0.42500
N790        N  0.54534119  0.96263891  0.93921110     0.00900
N791        N  0.44086570  0.96222599  0.95490072     0.01000
N792        N  0.44651929  0.05824674  0.58517055    -0.47000
H793        H  0.52749260  0.93647853  0.61514314     0.06800
N794        N  0.45684542  0.96224181  0.55958317     0.01300
N795        N  0.44085334  0.03769375  0.95525344     0.01000
C796        C  0.42684456  0.07590590  0.91689152     0.42700
N797        N  0.56719884  0.96246400  0.96573761    -0.25600
C798        C  0.54202174  0.06134474  0.59085436    -0.06500
N799        N  0.58659183  0.94126335  0.55310707    -0.46700
N800        N  0.41604955  0.05981920  0.94616118    -0.46900
C801        C  0.57603243  0.07588442  0.58160535     0.42400
N802        N  0.45640323  0.03711003  0.55992315     0.01300
N803        N  0.56701164  0.03781573  0.96587226    -0.25600
N804        N  0.53527915  0.96263346  0.56628565    -0.26100
N805        N  0.54518376  0.03761856  0.93934470     0.00900
H806        H  0.61445963  0.06608032  0.97584826     0.06800
H807        H  0.47672043  0.06506311  0.88557397     0.06900
N808        N  0.43462481  0.03726213  0.53330754    -0.26100
N809        N  0.46716483  0.96252997  0.93294948    -0.25700
N810        N  0.56095422  0.03775534  0.54362772     0.01300
C811        C  0.41864517  0.92392862  0.57301795     0.42700
C812        C  0.59212878  0.93891197  0.95957533    -0.07000
N813        N  0.46710224  0.03762305  0.93323648    -0.25700
H814        H  0.47696120  0.93555637  0.88512357     0.06800
N815        N  0.44741229  0.94047453  0.58448847    -0.47000
H816        H  0.61495614  0.93463836  0.97545719     0.06800
C817        C  0.58318228  0.07604415  0.92584774     0.42500
C818        C  0.54262892  0.93995348  0.59179870    -0.06500
Co819      Co  0.56436842  0.00010260  0.50484714     0.73800
N820        N  0.55473592  0.94100126  0.91420169    -0.46700
C821        C  0.41741895  0.07429399  0.57388214     0.42800
N822        N  0.58604506  0.05967310  0.55223650    -0.46700
Co823      Co  0.50624628  0.00009529  0.93585388     0.73900
C824        C  0.46082629  0.06114182  0.90833767    -0.07000
C825        C  0.41013074  0.93844052  0.53906756    -0.06600
N826        N  0.53502256  0.03779715  0.56604146    -0.26100
N827        N  0.41610825  0.94009997  0.94556609    -0.46800
H828        H  0.38651489  0.06444901  0.52368547     0.06800
C829        C  0.59170704  0.06168189  0.95989651    -0.07000
Cl830      Cl  0.50095496  0.99998686  0.49954268    -0.50000
C831        C  0.58362584  0.92459666  0.92552829     0.42600
H832        H  0.52674775  0.06542965  0.61400527     0.06800
N833        N  0.55444598  0.05944562  0.91442567    -0.46700
C834        C  0.92531358  0.42179081  0.57594046     0.42400
N835        N  0.96448018  0.43772308  0.53982539     0.01300
C836        C  0.05979910  0.59118558  0.54219755    -0.06600
H837        H  0.93316116  0.61086497  0.52379814     0.06800
C838        C  0.94178440  0.54201904  0.90624115    -0.06900
Co839      Co  0.00074453  0.50304879  0.56229886     0.74200
N840        N  0.96196486  0.56374967  0.53314250    -0.26100
Co841      Co  0.00035306  0.56288745  0.49486251     0.74100
C842        C  0.92663501  0.57559127  0.91566243     0.42500
N843        N  0.96561049  0.45620145  0.93608088     0.00900
N844        N  0.96345123  0.55993060  0.95494688     0.01000
N845        N  0.05968473  0.55196704  0.58579957    -0.47000
H846        H  0.93447850  0.46977053  0.61029777     0.06800
N847        N  0.96234956  0.54151094  0.55925824     0.01300
N848        N  0.03887358  0.56116419  0.95675909     0.01000
C849        C  0.07795515  0.57657792  0.92030347     0.42700
N850        N  0.96618595  0.43336517  0.96166378    -0.25600
C851        C  0.06159959  0.45780222  0.59049507    -0.06500
N852        N  0.94248546  0.41229223  0.54704297    -0.46700
N853        N  0.06093778  0.58646286  0.94921007    -0.46900
C854        C  0.07670862  0.42407730  0.58185388     0.42400
N855        N  0.03794284  0.54285439  0.56053594     0.01300
N856        N  0.04132096  0.43531288  0.96405925    -0.25600
N857        N  0.96367277  0.46300855  0.56296483    -0.26100
N858        N  0.04107658  0.45750201  0.93791110     0.00900
H859        H  0.06952417  0.38792827  0.97352231     0.06800
H860        H  0.06851924  0.52839533  0.88641572     0.06900
N861        N  0.03730562  0.56560309  0.53488572    -0.26100
N862        N  0.96441271  0.53462860  0.93187643    -0.25700
N863        N  0.03988351  0.43888843  0.54219527     0.01300
C864        C  0.92308672  0.57864855  0.57298437     0.42700
C865        C  0.94407500  0.40757880  0.95388684    -0.07000
N866        N  0.03959962  0.53573498  0.93379344    -0.25700
H867        H  0.93883659  0.52734232  0.88251463     0.06800
N868        N  0.94014777  0.55007135  0.58411912    -0.47000
H869        H  0.94079247  0.38419741  0.96902883     0.06800
C870        C  0.08018148  0.42012030  0.92452776     0.42500
C871        C  0.93957405  0.45518031  0.58690638    -0.06500
Co872      Co  0.00299847  0.43601892  0.50199888     0.73800
N873        N  0.94441164  0.44694145  0.91042971    -0.46700
C874        C  0.07475372  0.58218198  0.57603242     0.42800
N875        N  0.06165802  0.41389855  0.55172625    -0.46700
Co876      Co  0.00263813  0.49595354  0.93450544     0.73900
C877        C  0.06359388  0.54321194  0.90969981    -0.07000
C878        C  0.93765086  0.58789453  0.53929987    -0.06600
N879        N  0.03895257  0.46457985  0.56481715    -0.26100
N880        N  0.94166520  0.58502103  0.94597747    -0.46800
H881        H  0.06325501  0.61440002  0.52683605     0.06800
C882        C  0.06540652  0.41098623  0.95805498    -0.07000
Cl883      Cl  0.00165005  0.49947077  0.49841140    -0.50000
C884        C  0.92954521  0.41653751  0.91981240     0.42600
H885        H  0.06443022  0.47295989  0.61392411     0.06800
N886        N  0.06327460  0.44870324  0.91316614    -0.46700
C887        C  0.24927958  0.25387215  0.71586802     0.45400
H888        H  0.24519417  0.25590073  0.68741580    -0.03600
C889        C  0.25735558  0.25049569  0.78248904     0.45500
H890        H  0.26132083  0.24893426  0.81100916    -0.03600
C891        C  0.27680327  0.27889469  0.72982792    -0.17300
C892        C  0.21633281  0.26372168  0.73595438    -0.17100
C893        C  0.26260721  0.21803080  0.72822683    -0.17400
C894        C  0.28112395  0.27708205  0.76498774    -0.17400
C895        C  0.22043962  0.26198025  0.77152801    -0.17000
C896        C  0.26632750  0.21636445  0.76398283    -0.17300
C897        C  0.74478638  0.25167580  0.71597561     0.45400
H898        H  0.74080347  0.25041983  0.68741582    -0.03600
C899        C  0.75309513  0.25448339  0.78260577     0.45500
H900        H  0.75722263  0.25633897  0.81106730    -0.03600
C901        C  0.72157711  0.27846153  0.73372384    -0.17300
C902        C  0.73550061  0.21752040  0.73440833    -0.17100
C903        C  0.78180251  0.26289559  0.72662839    -0.17400
C904        C  0.72614158  0.28015060  0.76884282    -0.17400
C905        C  0.73876822  0.21900534  0.77017676    -0.17000
C906        C  0.78624458  0.26379045  0.76218629    -0.17300
C907        C  0.25165416  0.74373474  0.71474705     0.45400
H908        H  0.24837758  0.74197485  0.68614971    -0.03600
C909        C  0.25886773  0.74656221  0.78154086     0.45500
H910        H  0.26230076  0.74780179  0.81015968    -0.03600
C911        C  0.27860998  0.71827834  0.72903312    -0.17300
C912        C  0.26486701  0.77935159  0.72762396    -0.17100
C913        C  0.21827221  0.73420577  0.73445723    -0.17400
C914        C  0.28251136  0.71992454  0.76423895    -0.17400
C915        C  0.26838350  0.78076996  0.76334683    -0.17000
C916        C  0.22210873  0.73505003  0.77010842    -0.17300
C917        C  0.74575857  0.75062869  0.71552699     0.45400
H918        H  0.74271395  0.75373896  0.68703609    -0.03600
C919        C  0.75146839  0.74455746  0.78216672     0.45500
H920        H  0.75419868  0.74143924  0.81070744    -0.03600
C921        C  0.72094008  0.72384256  0.73111199    -0.17300
C922        C  0.78197981  0.73728501  0.72691984    -0.17100
C923        C  0.73690137  0.78424524  0.73521347    -0.17400
C924        C  0.72414791  0.72049290  0.76630925    -0.17400
C925        C  0.78496641  0.73494942  0.76267800    -0.17000
C926        C  0.73916966  0.78102964  0.77089995    -0.17300
C927        C  0.09552929  0.60511401  0.59935277    -0.01300
C928        C  0.09770412  0.64080500  0.59269989    -0.09400
C929        C  0.11573282  0.66301076  0.61510400    -0.18200
C930        C  0.13279889  0.65024372  0.64505655     0.04200
C931        C  0.13144373  0.61388224  0.65127198     0.18400
C932        C  0.11255008  0.59185582  0.62880121    -0.19600
C933        C  0.14911456  0.59972201  0.67978971    -0.20900
C934        C  0.16820294  0.62080243  0.70218203    -0.19400
C935        C  0.16959431  0.65674195  0.69712270     0.19800
C936        C  0.15154773  0.67210005  0.66874291     0.01900
C937        C  0.15340495  0.70861951  0.66518177    -0.14200
C938        C  0.17343022  0.72871868  0.68792282    -0.11900
C939        C  0.19178794  0.71340890  0.71527534     0.01400
C940        C  0.18960101  0.67734783  0.71984146    -0.24000
H941        H  0.08484699  0.65196342  0.57032060     0.09400
H942        H  0.11599795  0.69005551  0.60809994     0.13000
H943        H  0.11132916  0.56426148  0.63410002     0.11700
H944        H  0.14843374  0.57204876  0.68464887     0.12900
H945        H  0.18191144  0.60888975  0.72371783     0.12000
H946        H  0.14008641  0.72240579  0.64478038     0.09000
H947        H  0.17542027  0.75640167  0.68353157     0.12300
H948        H  0.20477215  0.66511310  0.74019977     0.14200
C949        C  0.20027109  0.71396464  0.79447123    -0.01300
C950        C  0.21671519  0.69240504  0.81887614    -0.09400
C951        C  0.19783604  0.67017924  0.84009291    -0.18200
C952        C  0.16130333  0.66844729  0.83790135     0.04200
C953        C  0.14431161  0.69094280  0.81394342     0.18400
C954        C  0.16381564  0.71344511  0.79256873    -0.19600
C955        C  0.10800306  0.69056088  0.81132730    -0.20900
C956        C  0.08825243  0.66832690  0.83190711    -0.19400
C957        C  0.10429266  0.64561990  0.85541938     0.19800
C958        C  0.14111902  0.64519202  0.85863093     0.01900
C959        C  0.15612126  0.62127319  0.88228757    -0.14200
C960        C  0.13542708  0.59906947  0.90207151    -0.11900
C961        C  0.09932464  0.59996599  0.89904125     0.01400
C962        C  0.08377802  0.62318577  0.87571835    -0.24000
H963        H  0.24465045  0.69172918  0.82129479     0.09400
H964        H  0.21281030  0.65453161  0.85782708     0.13000
H965        H  0.15067639  0.73022404  0.77414808     0.11700
H966        H  0.09476331  0.70758297  0.79321614     0.12900
H967        H  0.06019799  0.66875227  0.82926337     0.12000
H968        H  0.18377391  0.61885990  0.88604312     0.09000
H969        H  0.14769872  0.58109840  0.91992985     0.12300
H970        H  0.05567307  0.62365795  0.87333917     0.14200
C971        C  0.09934940  0.39609925  0.90196934    -0.01300
C972        C  0.08227225  0.37866081  0.87504657    -0.09400
C973        C  0.09995868  0.35435948  0.85470317    -0.18200
C974        C  0.13564246  0.34733122  0.86042437     0.04200
C975        C  0.15280126  0.36578998  0.88752964     0.18400
C976        C  0.13440330  0.38928741  0.90839406    -0.19600
C977        C  0.18838855  0.36117127  0.89332812    -0.20900
C978        C  0.20765895  0.33940991  0.87214160    -0.19400
C979        C  0.19162257  0.32081075  0.84534835     0.19800
C980        C  0.15522858  0.32353198  0.83971017     0.01900
C981        C  0.14031747  0.30253131  0.81343775    -0.14200
C982        C  0.16107365  0.28119927  0.79256140    -0.11900
C983        C  0.19732645  0.28059115  0.79666210     0.01400
C984        C  0.21212545  0.30005654  0.82371155    -0.24000
H985        H  0.05497072  0.38353548  0.87005381     0.09400
H986        H  0.08526749  0.34199992  0.83432707     0.13000
H987        H  0.14750763  0.40281515  0.92934824     0.11700
H988        H  0.20160602  0.37516293  0.91387778     0.12900
H989        H  0.23538857  0.33715056  0.87672797     0.12000
H990        H  0.11274101  0.30206610  0.80844992     0.09000
H991        H  0.14879754  0.26580402  0.77248681     0.12300
H992        H  0.24002622  0.30041658  0.82734582     0.14200
C993        C  0.19116408  0.28706554  0.71777590    -0.01300
C994        C  0.19033674  0.32258537  0.72549790    -0.09400
C995        C  0.17147449  0.34579107  0.70481680    -0.18200
C996        C  0.15322041  0.33432591  0.67500067     0.04200
C997        C  0.15414458  0.29825233  0.66729758     0.18400
C998        C  0.17294174  0.27514550  0.68861831    -0.19600
C999        C  0.13707023  0.28554745  0.63780557    -0.20900
C1000       C  0.11938312  0.30786831  0.61551003    -0.19400
C1001       C  0.11807508  0.34353193  0.62215842     0.19800
C1002       C  0.13471667  0.35730584  0.65215873     0.01900
C1003       C  0.13214339  0.39347306  0.65781387    -0.14200
C1004       C  0.11381658  0.41488215  0.63479205    -0.11900
C1005       C  0.09752649  0.40124873  0.60520948     0.01400
C1006       C  0.10002294  0.36547516  0.59899503    -0.24000
H1007       H  0.20554235  0.33272543  0.74690075     0.09400
H1008       H  0.17251845  0.37267250  0.71230580     0.13000
H1009       H  0.17440164  0.24788929  0.68189143     0.11700
H1010       H  0.13768340  0.25812458  0.63172239     0.12900
H1011       H  0.10666022  0.29712390  0.59280649     0.12000
H1012       H  0.14380267  0.40601113  0.67994165     0.09000
H1013       H  0.11245136  0.44236622  0.64029366     0.12300
H1014       H  0.08734266  0.35451639  0.57636304     0.14200
C1015       C  0.80343534  0.28366332  0.70173372    -0.01300
C1016       C  0.78678798  0.30604146  0.67822638    -0.09400
C1017       C  0.80555010  0.32802876  0.65659825    -0.18200
C1018       C  0.84218784  0.32860005  0.65737587     0.04200
C1019       C  0.85934620  0.30520571  0.68034372     0.18400
C1020       C  0.83994914  0.28305742  0.70225144    -0.19600
C1021       C  0.89572852  0.30444012  0.68155004    -0.20900
C1022       C  0.91538017  0.32667157  0.66084786    -0.19400
C1023       C  0.89919869  0.35049851  0.63857222     0.19800
C1024       C  0.86231440  0.35176112  0.63641191     0.01900
C1025       C  0.84720896  0.37652142  0.61369126    -0.14200
C1026       C  0.86784097  0.39920380  0.59433539    -0.11900
C1027       C  0.90398582  0.39788854  0.59675637     0.01400
C1028       C  0.91964117  0.37335637  0.61863242    -0.24000
H1029       H  0.75881025  0.30753075  0.67690796     0.09400
H1030       H  0.79043204  0.34446536  0.63975946     0.13000
H1031       H  0.85321949  0.26571115  0.72002919     0.11700
H1032       H  0.90910486  0.28666157  0.69880043     0.12900
H1033       H  0.94348056  0.32548959  0.66257632     0.12000
H1034       H  0.81955682  0.37930962  0.61046028     0.09000
H1035       H  0.85547242  0.41791714  0.57732535     0.12300
H1036       H  0.94776577  0.37231527  0.62031695     0.14200
C1037       C  0.90942441  0.39349287  0.89601545    -0.01300
C1038       C  0.90608639  0.35806494  0.90346742    -0.09400
C1039       C  0.88845755  0.33571430  0.88093439    -0.18200
C1040       C  0.87293295  0.34806245  0.85000254     0.04200
C1041       C  0.87551947  0.38417190  0.84281619     0.18400
C1042       C  0.89409673  0.40634327  0.86543908    -0.19600
C1043       C  0.85914848  0.39795034  0.81333564    -0.20900
C1044       C  0.83975938  0.37679522  0.79122833    -0.19400
C1045       C  0.83700396  0.34109411  0.79741840     0.19800
C1046       C  0.85424999  0.32605007  0.82643810     0.01900
C1047       C  0.85161109  0.28967758  0.83082263    -0.14200
C1048       C  0.83126065  0.26949231  0.80847877    -0.11900
C1049       C  0.81323563  0.28454473  0.78077166     0.01400
C1050       C  0.81640133  0.32043908  0.77524919    -0.24000
H1051       H  0.91758389  0.34719546  0.92671231     0.09400
H1052       H  0.88705507  0.30893255  0.88874564     0.13000
H1053       H  0.89622501  0.43372892  0.85946420     0.11700
H1054       H  0.86082719  0.42541959  0.80765929     0.12900
H1055       H  0.82683930  0.38845668  0.76908957     0.12000
H1056       H  0.86460896  0.27607348  0.85154648     0.09000
H1057       H  0.82867483  0.24196480  0.81352305     0.12300
H1058       H  0.80157983  0.33257848  0.75459731     0.14200
C1059       C  0.81047206  0.71308551  0.78199187    -0.01300
C1060       C  0.82771051  0.72695503  0.81079974    -0.09400
C1061       C  0.84717566  0.70577250  0.83304236    -0.18200
C1062       C  0.84982654  0.66960699  0.82728825     0.04200
C1063       C  0.83279536  0.65574678  0.79756206     0.18400
C1064       C  0.81293124  0.67733630  0.77568210    -0.19600
C1065       C  0.83519654  0.62029723  0.79017521    -0.20900
C1066       C  0.85424278  0.59822853  0.81160587    -0.19400
C1067       C  0.87081986  0.61084879  0.84143795     0.19800
C1068       C  0.86850126  0.64666536  0.84997554     0.01900
C1069       C  0.88462069  0.65778392  0.88108011    -0.14200
C1070       C  0.90270317  0.63451973  0.90236153    -0.11900
C1071       C  0.90577468  0.59942679  0.89342151     0.01400
C1072       C  0.88959752  0.58778162  0.86288074    -0.24000
H1073       H  0.82535196  0.75433104  0.81661957     0.09400
H1074       H  0.85962916  0.71846077  0.85465202     0.13000
H1075       H  0.79846150  0.66613088  0.75426038     0.11700
H1076       H  0.82235639  0.60956079  0.76753580     0.12900
H1077       H  0.85573926  0.57097149  0.80495368     0.12000
H1078       H  0.88355407  0.68428310  0.88983350     0.09000
H1079       H  0.91478857  0.64427763  0.92582505     0.12300
H1080       H  0.89139916  0.56065239  0.85582151     0.14200
C1081       C  0.80401631  0.71694844  0.70168439    -0.01300
C1082       C  0.78806317  0.70040249  0.67323653    -0.09400
C1083       C  0.80670277  0.67890172  0.65096182    -0.18200
C1084       C  0.84219138  0.67183958  0.65676429     0.04200
C1085       C  0.85847939  0.68794107  0.68575211     0.18400
C1086       C  0.83982042  0.71135534  0.70687992    -0.19600
C1087       C  0.89295994  0.67964974  0.69409506    -0.20900
C1088       C  0.91130501  0.65528244  0.67468715    -0.19400
C1089       C  0.89620218  0.63964728  0.64548369     0.19800
C1090       C  0.86174033  0.64853180  0.63546848     0.01900
C1091       C  0.84854505  0.63403561  0.60432142    -0.14200
C1092       C  0.86855779  0.61132908  0.58435446    -0.11900
C1093       C  0.90182104  0.60151696  0.59516032     0.01400
C1094       C  0.91552555  0.61562016  0.62582691    -0.24000
H1095       H  0.76048628  0.70269734  0.66845876     0.09400
H1096       H  0.79209486  0.66680142  0.63036831     0.13000
H1097       H  0.85294371  0.72409646  0.72826286     0.11700
H1098       H  0.90556364  0.69144311  0.71633833     0.12900
H1099       H  0.93768650  0.64895704  0.68232182     0.12000
H1100       H  0.82322627  0.64051800  0.59418190     0.09000
H1101       H  0.85793090  0.60124089  0.56032984     0.12300
H1102       H  0.94173323  0.60879869  0.63369612     0.14200
C1103       C  0.60626967  0.09716325  0.90379533    -0.01300
C1104       C  0.61775605  0.12949494  0.91537119    -0.09400
C1105       C  0.63976445  0.14975459  0.89485761    -0.18200
C1106       C  0.65180759  0.13770487  0.86231283     0.04200
C1107       C  0.64142978  0.10402493  0.85152436     0.18400
C1108       C  0.61810024  0.08450248  0.87183284    -0.19600
C1109       C  0.65480126  0.08995107  0.82081353    -0.20900
C1110       C  0.67845602  0.10855863  0.80069417    -0.19400
C1111       C  0.68818688  0.14233936  0.80992123     0.19800
C1112       C  0.67417987  0.15763407  0.84038134     0.01900
C1113       C  0.68236494  0.19257973  0.84712357    -0.14200
C1114       C  0.70338511  0.21154754  0.82467291    -0.11900
C1115       C  0.71828167  0.19649816  0.79495807     0.01400
C1116       C  0.71113745  0.16126203  0.78844757    -0.24000
H1117       H  0.60934393  0.13929916  0.94031148     0.09400
H1118       H  0.64763874  0.17432635  0.90560044     0.13000
H1119       H  0.60991520  0.05897915  0.86328886     0.11700
H1120       H  0.64730182  0.06414812  0.81255014     0.12900
H1121       H  0.68859330  0.09673391  0.77732283     0.12000
H1122       H  0.67161100  0.20655163  0.86877872     0.09000
H1123       H  0.70676050  0.23868625  0.83057314     0.12300
H1124       H  0.72261709  0.14868303  0.76616141     0.14200
C1125       C  0.71324651  0.19267087  0.71483630    -0.01300
C1126       C  0.72763003  0.17310075  0.68797959    -0.09400
C1127       C  0.70646004  0.15335953  0.66595446    -0.18200
C1128       C  0.66983412  0.15307961  0.66978175     0.04200
C1129       C  0.65544489  0.17258648  0.69756177     0.18400
C1130       C  0.67710082  0.19229777  0.71951049    -0.19600
C1131       C  0.61946889  0.17271382  0.70296145    -0.20900
C1132       C  0.59738049  0.15367964  0.68153743    -0.19400
C1133       C  0.61056720  0.13455443  0.65365832     0.19800
C1134       C  0.64695600  0.13439121  0.64703239     0.01900
C1135       C  0.65871866  0.11590624  0.61764537    -0.14200
C1136       C  0.63550135  0.09782367  0.59631103    -0.11900
C1137       C  0.59980916  0.09702997  0.60357992     0.01400
C1138       C  0.58752077  0.11566413  0.63227775    -0.24000
H1139       H  0.75543446  0.17362804  0.68362393     0.09400
H1140       H  0.71952555  0.13885819  0.64598944     0.13000
H1141       H  0.66578260  0.20819298  0.73974389     0.11700
H1142       H  0.60832111  0.18752045  0.72406500     0.12900
H1143       H  0.56969609  0.15414417  0.68666986     0.12000
H1144       H  0.68570557  0.11507804  0.61029573     0.09000
H1145       H  0.64575615  0.08383916  0.57424682     0.12300
H1146       H  0.55993012  0.11565884  0.63792105     0.14200
C1147       C  0.28165228  0.19490986  0.70304709    -0.01300
C1148       C  0.29679221  0.20968037  0.67330106    -0.09400
C1149       C  0.31723705  0.19030764  0.65084034    -0.18200
C1150       C  0.32483520  0.15528006  0.65774664     0.04200
C1151       C  0.31043255  0.14015390  0.68813813     0.18400
C1152       C  0.28769666  0.15944154  0.70945748    -0.19600
C1153       C  0.31992890  0.10636231  0.69763737    -0.20900
C1154       C  0.34396910  0.08773736  0.67799606    -0.19400
C1155       C  0.35783435  0.10175472  0.64741678     0.19800
C1156       C  0.34738553  0.13527848  0.63621707     0.01900
C1157       C  0.35968301  0.14724651  0.60373328    -0.14200
C1158       C  0.38223336  0.12720062  0.58376246    -0.11900
C1159       C  0.39398527  0.09513077  0.59577047     0.01400
C1160       C  0.38174885  0.08240734  0.62762785    -0.24000
H1161       H  0.29440053  0.23695851  0.66753082     0.09400
H1162       H  0.32839155  0.20416525  0.62927286     0.13000
H1163       H  0.27611127  0.14722460  0.73193964     0.11700
H1164       H  0.30950022  0.09464902  0.72095979     0.12900
H1165       H  0.35143671  0.06201749  0.68655266     0.12000
H1166       H  0.35158488  0.17157458  0.59257756     0.09000
H1167       H  0.39082615  0.13696292  0.55883915     0.12300
H1168       H  0.39003799  0.05700797  0.63644221     0.14200
C1169       C  0.28970078  0.19205804  0.78307488    -0.01300
C1170       C  0.32490007  0.18947766  0.77418505    -0.09400
C1171       C  0.34809205  0.17047172  0.79468167    -0.18200
C1172       C  0.33703603  0.15419042  0.82568001     0.04200
C1173       C  0.30144370  0.15758948  0.83504741     0.18400
C1174       C  0.27824123  0.17623525  0.81371418    -0.19600
C1175       C  0.28938035  0.14303065  0.86605536    -0.20900
C1176       C  0.31189018  0.12522791  0.88809340    -0.19400
C1177       C  0.34701181  0.12116114  0.87955047     0.19800
C1178       C  0.36008289  0.13534512  0.84809169     0.01900
C1179       C  0.39564460  0.12998182  0.84049136    -0.14200
C1180       C  0.41717706  0.11136163  0.86309785    -0.11900
C1181       C  0.40422949  0.09739559  0.89405968     0.01400
C1182       C  0.36908656  0.10268970  0.90220779    -0.24000
H1183       H  0.33480627  0.20313348  0.75170606     0.09400
H1184       H  0.37467527  0.16991516  0.78608096     0.13000
H1185       H  0.25132820  0.17931271  0.82141153     0.11700
H1186       H  0.26235539  0.14565947  0.87347113     0.12900
H1187       H  0.30170024  0.11443976  0.91196284     0.12000
H1188       H  0.40756860  0.13951221  0.81712543     0.09000
H1189       H  0.44414362  0.10777911  0.85602636     0.12300
H1190       H  0.35866770  0.09187672  0.92597959     0.14200
C1191       C  0.60099402  0.90584391  0.60575110    -0.01300
C1192       C  0.63624351  0.90324172  0.59699719    -0.09400
C1193       C  0.65977352  0.88578085  0.61850528    -0.18200
C1194       C  0.64879869  0.86980873  0.64965804     0.04200
C1195       C  0.61294215  0.87222017  0.65836242     0.18400
C1196       C  0.58956615  0.89027473  0.63661522    -0.19600
C1197       C  0.60056304  0.85632530  0.68858930    -0.20900
C1198       C  0.62281556  0.83747017  0.71000579    -0.19400
C1199       C  0.65816846  0.83436836  0.70205983     0.19800
C1200       C  0.67187439  0.85099245  0.67211357     0.01900
C1201       C  0.70793632  0.84741732  0.66568781    -0.14200
C1202       C  0.72909332  0.82729008  0.68738110    -0.11900
C1203       C  0.71532376  0.81035885  0.71635014     0.01400
C1204       C  0.67972640  0.81394445  0.72343703    -0.24000
H1205       H  0.64589052  0.91508482  0.57341585     0.09400
H1206       H  0.68638713  0.88501941  0.60983243     0.13000
H1207       H  0.56237016  0.89193912  0.64367758     0.11700
H1208       H  0.57332297  0.85807431  0.69548253     0.12900
H1209       H  0.61222838  0.82502616  0.73289339     0.12000
H1210       H  0.72052433  0.85944121  0.64380553     0.09000
H1211       H  0.75631810  0.82415562  0.68098591     0.12300
H1212       H  0.66848148  0.79971257  0.74494281     0.14200
C1213       C  0.60661900  0.90336564  0.90351590    -0.01300
C1214       C  0.61244090  0.86864154  0.91187961    -0.09400
C1215       C  0.63443626  0.84818457  0.89160818    -0.18200
C1216       C  0.65203206  0.86219950  0.86251492     0.04200
C1217       C  0.64691711  0.89790446  0.85486752     0.18400
C1218       C  0.62381967  0.91794028  0.87494962    -0.19600
C1219       C  0.66516938  0.91338370  0.82748258    -0.20900
C1220       C  0.68841117  0.89416891  0.80750611    -0.19400
C1221       C  0.69330098  0.85869928  0.81369365     0.19800
C1222       C  0.67472515  0.84218008  0.84098765     0.01900
C1223       C  0.67907902  0.80613482  0.84513068    -0.14200
C1224       C  0.70049676  0.78725930  0.82305078    -0.11900
C1225       C  0.71913420  0.80326663  0.79608855     0.01400
C1226       C  0.71596976  0.83942864  0.79224261    -0.24000
H1227       H  0.59969540  0.85719413  0.93416243     0.09400
H1228       H  0.63763845  0.82168561  0.89984726     0.13000
H1229       H  0.61979858  0.94510529  0.86887904     0.11700
H1230       H  0.66164930  0.94064985  0.82163119     0.12900
H1231       H  0.70219372  0.90702799  0.78664992     0.12000
H1232       H  0.66532469  0.79141138  0.86448445     0.09000
H1233       H  0.70123532  0.75953812  0.82681491     0.12300
H1234       H  0.73023600  0.85243036  0.77181126     0.14200
C1235       C  0.40475469  0.90228215  0.89338606    -0.01300
C1236       C  0.41776520  0.88897043  0.86216679    -0.09400
C1237       C  0.39659418  0.86973738  0.83969894    -0.18200
C1238       C  0.36133407  0.86304118  0.84767565     0.04200
C1239       C  0.34826818  0.87635619  0.87949373     0.18400
C1240       C  0.36994671  0.89556333  0.90194908    -0.19600
C1241       C  0.31352549  0.87065612  0.88862966    -0.20900
C1242       C  0.29135246  0.85219990  0.86680785    -0.19400
C1243       C  0.30331800  0.83874600  0.83530152     0.19800
C1244       C  0.33855105  0.84374010  0.82531212     0.01900
C1245       C  0.34945831  0.82870174  0.79366029    -0.14200
C1246       C  0.32645926  0.80942865  0.77310792    -0.11900
C1247       C  0.29155108  0.80524884  0.78266811     0.01400
C1248       C  0.28032615  0.81977813  0.81400579    -0.24000
H1249       H  0.44448909  0.89355098  0.85477271     0.09400
H1250       H  0.40854694  0.86072853  0.81614150     0.13000
H1251       H  0.35948632  0.90573336  0.92595425     0.11700
H1252       H  0.30335029  0.88068080  0.91281731     0.12900
H1253       H  0.26461155  0.84833605  0.87470707     0.12000
H1254       H  0.37580241  0.83059471  0.78449279     0.09000
H1255       H  0.33637806  0.79681260  0.75007967     0.12300
H1256       H  0.25370494  0.81557161  0.82219763     0.14200
C1257       C  0.28310877  0.80341818  0.70298804    -0.01300
C1258       C  0.28465930  0.83932973  0.70858141    -0.09400
C1259       C  0.30543630  0.86064352  0.68756501    -0.18200
C1260       C  0.32487855  0.84669985  0.65966923     0.04200
C1261       C  0.32133239  0.81071356  0.65280609     0.18400
C1262       C  0.30116710  0.78964348  0.67452189    -0.19600
C1263       C  0.33845804  0.79561867  0.62461244    -0.20900
C1264       C  0.35941717  0.81545711  0.60306950    -0.19400
C1265       C  0.36466967  0.85068589  0.60978555     0.19800
C1266       C  0.34784068  0.86685147  0.63842233     0.01900
C1267       C  0.35556930  0.90213932  0.64496627    -0.14200
C1268       C  0.37898685  0.92038674  0.62398439    -0.11900
C1269       C  0.39472886  0.90435127  0.59551421     0.01400
C1270       C  0.38720548  0.86969058  0.58829217    -0.24000
H1271       H  0.27042544  0.85086280  0.72983734     0.09400
H1272       H  0.30574733  0.88790645  0.69369507     0.13000
H1273       H  0.30079422  0.76202773  0.66967404     0.11700
H1274       H  0.33560793  0.76818788  0.61915209     0.12900
H1275       H  0.37221808  0.80296428  0.58140991     0.12000
H1276       H  0.34447936  0.91606321  0.66649683     0.09000
H1277       H  0.38456475  0.94730679  0.62978327     0.12300
H1278       H  0.39958814  0.85729555  0.56630907     0.14200
C1279       C  0.30532297  0.69685861  0.78425045    -0.01300
C1280       C  0.30154731  0.66098300  0.78134924    -0.09400
C1281       C  0.32273444  0.63883953  0.80042104    -0.18200
C1282       C  0.34848460  0.65217616  0.82301540     0.04200
C1283       C  0.35200242  0.68882743  0.82572124     0.18400
C1284       C  0.33020110  0.71075798  0.80660110    -0.19600
C1285       C  0.37717524  0.70337288  0.84751379    -0.20900
C1286       C  0.39887227  0.68225949  0.86707600    -0.19400
C1287       C  0.39565731  0.64617207  0.86545309     0.19800
C1288       C  0.37053727  0.63053101  0.84331422     0.01900
C1289       C  0.36822952  0.59392159  0.84294995    -0.14200
C1290       C  0.38892361  0.57387108  0.86479455    -0.11900
C1291       C  0.41278667  0.58958853  0.88717318     0.01400
C1292       C  0.41680733  0.62561342  0.88667341    -0.24000
H1293       H  0.28176802  0.65007742  0.76450779     0.09400
H1294       H  0.31819591  0.61151263  0.79686546     0.13000
H1295       H  0.33279718  0.73868578  0.80875012     0.11700
H1296       H  0.38000614  0.73126993  0.84953739     0.17400
H1297       H  0.41799711  0.69425007  0.88395147     0.12000
H1298       H  0.35024869  0.57992988  0.82667631     0.09000
H1299       H  0.38582038  0.54596732  0.86451402     0.12300
H1300       H  0.43533755  0.63787047  0.90404009     0.14200
C1301       C  0.29965076  0.69565955  0.70685316    -0.01300
C1302       C  0.33568054  0.69958674  0.70665548    -0.09400
C1303       C  0.35637673  0.67709809  0.68762585    -0.18200
C1304       C  0.34140725  0.64975105  0.66822738     0.04200
C1305       C  0.30461385  0.64588164  0.66881864     0.18400
C1306       C  0.28407721  0.66907453  0.68781817    -0.19600
C1307       C  0.28859382  0.61902604  0.65034956    -0.20900
C1308       C  0.30827373  0.59653327  0.63023633    -0.19400
C1309       C  0.34438254  0.60046800  0.62809773     0.19800
C1310       C  0.36154822  0.62671285  0.64760868     0.01900
C1311       C  0.39807419  0.62945959  0.64476262    -0.14200
C1312       C  0.41638079  0.60874779  0.62167852    -0.11900
C1313       C  0.39914694  0.58416204  0.60136413     0.01400
C1314       C  0.36335878  0.57917779  0.60552172    -0.24000
H1315       H  0.34784338  0.72016988  0.72150794     0.09400
H1316       H  0.38391899  0.68192000  0.68872411     0.13000
H1317       H  0.25607909  0.66605477  0.68841707     0.11700
H1318       H  0.26061746  0.61573906  0.65103554     0.12900
H1319       H  0.29508064  0.57641365  0.61564257     0.12000
H1320       H  0.41326600  0.64795214  0.65921211     0.09000
H1321       H  0.44419390  0.61248313  0.61920485     0.12300
H1322       H  0.34993897  0.56002709  0.58986263     0.14200
C1323       C  0.59736917  0.59630039  0.89854115    -0.01300
C1324       C  0.58113646  0.62003195  0.87641417    -0.09400
C1325       C  0.60048938  0.63921253  0.85274582    -0.18200
C1326       C  0.63702114  0.63557167  0.85090809     0.04200
C1327       C  0.65319549  0.61047762  0.87265490     0.18400
C1328       C  0.63324268  0.59087206  0.89589902    -0.19600
C1329       C  0.68926045  0.60578165  0.87178580    -0.20900
C1330       C  0.70985868  0.62627687  0.85046390    -0.19400
C1331       C  0.69481252  0.65178164  0.82942647     0.19800
C1332       C  0.65810690  0.65646337  0.82891157     0.01900
C1333       C  0.64417502  0.68239111  0.80693422    -0.14200
C1334       C  0.66579534  0.70290030  0.78664886    -0.11900
C1335       C  0.70174531  0.69827099  0.78764279     0.01400
C1336       C  0.71627078  0.67293053  0.80907243    -0.24000
H1337       H  0.55331066  0.62409004  0.87753788     0.09400
H1338       H  0.58605726  0.65707974  0.83679717     0.13000
H1339       H  0.64588181  0.57229704  0.91288899     0.11700
H1340       H  0.70168462  0.58655838  0.88817688     0.12900
H1341       H  0.73777334  0.62243385  0.85072668     0.12000
H1342       H  0.61677786  0.68768914  0.80487928     0.09000
H1343       H  0.65444276  0.72282367  0.77031665     0.12300
H1344       H  0.74424946  0.66955571  0.80964529     0.14200
C1345       C  0.58299660  0.59888676  0.61082989    -0.01300
C1346       C  0.57711538  0.63465124  0.61208788    -0.09400
C1347       C  0.59812322  0.65595986  0.63233092    -0.18200
C1348       C  0.62563809  0.64195504  0.65220053     0.04200
C1349       C  0.62961482  0.60530164  0.65301839     0.18400
C1350       C  0.60868990  0.58419773  0.63195524    -0.19600
C1351       C  0.65482645  0.59005473  0.67435124    -0.20900
C1352       C  0.67665389  0.61055404  0.69449939    -0.19400
C1353       C  0.67455482  0.64672788  0.69274819     0.19800
C1354       C  0.64937583  0.66301188  0.67115607     0.01900
C1355       C  0.64979337  0.69963375  0.66859773    -0.14200
C1356       C  0.67356787  0.71922219  0.68758142    -0.11900
C1357       C  0.69707942  0.70296666  0.70984928     0.01400
C1358       C  0.69784281  0.66680662  0.71210631    -0.24000
H1359       H  0.55711187  0.64657277  0.59628236     0.09400
H1360       H  0.59219339  0.68326219  0.63182921     0.13000
H1361       H  0.61275642  0.55637136  0.63153577     0.11700
H1362       H  0.65768501  0.56211454  0.67544222     0.12900
H1363       H  0.69585809  0.59806068  0.71091653     0.12000
H1364       H  0.63256727  0.71385722  0.65170711     0.09000
H1365       H  0.67319670  0.74721207  0.68532172     0.12300
H1366       H  0.71691439  0.65435017  0.72875206     0.14200
C1367       C  0.70503480  0.30224994  0.79148213    -0.01300
C1368       C  0.66916718  0.29715126  0.79272088    -0.09400
C1369       C  0.64827626  0.31909298  0.81218577    -0.18200
C1370       C  0.66286573  0.34713765  0.83086152     0.04200
C1371       C  0.69945520  0.35231973  0.82902432     0.18400
C1372       C  0.72024898  0.32950983  0.80981974    -0.19600
C1373       C  0.71496853  0.38034842  0.84611499    -0.20900
C1374       C  0.69497340  0.40310858  0.86560754    -0.19400
C1375       C  0.65910618  0.39801153  0.86891156     0.19800
C1376       C  0.64250640  0.37000987  0.85146526     0.01900
C1377       C  0.60635104  0.36557430  0.85612981    -0.14200
C1378       C  0.58782907  0.38708480  0.87828806    -0.11900
C1379       C  0.60445932  0.41393137  0.89613601     0.01400
C1380       C  0.63988024  0.42000628  0.89059833    -0.24000
H1381       H  0.65727781  0.27611424  0.77830075     0.09400
H1382       H  0.62086032  0.31356362  0.81166069     0.13000
H1383       H  0.74810676  0.33350497  0.80825733     0.11700
H1384       H  0.74277524  0.38462276  0.84448766     0.12900
H1385       H  0.70776512  0.42442708  0.87878653     0.12000
H1386       H  0.59168317  0.34517153  0.84390320     0.09000
H1387       H  0.56035768  0.38215625  0.88205639     0.12300
H1388       H  0.65291844  0.44069432  0.90450879     0.14200
C1389       C  0.69825004  0.30143417  0.71425572    -0.01300
C1390       C  0.70198004  0.33729459  0.71721891    -0.09400
C1391       C  0.68061122  0.35942443  0.69838338    -0.18200
C1392       C  0.65478394  0.34608152  0.67588828     0.04200
C1393       C  0.65089929  0.30945095  0.67355997     0.18400
C1394       C  0.67290505  0.28752790  0.69242936    -0.19600
C1395       C  0.62533564  0.29493094  0.65219683    -0.20900
C1396       C  0.60391778  0.31606449  0.63233795    -0.19400
C1397       C  0.60789943  0.35211037  0.63316417     0.19800
C1398       C  0.63319236  0.36771068  0.65513155     0.01900
C1399       C  0.63639003  0.40424569  0.65463050    -0.14200
C1400       C  0.61639972  0.42422902  0.63212093    -0.11900
C1401       C  0.59234938  0.40854607  0.60993346     0.01400
C1402       C  0.58744582  0.37264296  0.61124752    -0.24000
H1403       H  0.72197027  0.34820889  0.73380419     0.09400
H1404       H  0.68515906  0.38673441  0.70196589     0.13000
H1405       H  0.67024029  0.25964449  0.69030031     0.11700
H1406       H  0.62211034  0.26705023  0.65059925     0.12900
H1407       H  0.58458429  0.30410644  0.61568145     0.12000
H1408       H  0.65461642  0.41820965  0.67062456     0.09000
H1409       H  0.62016564  0.45204883  0.63180210     0.12300
H1410       H  0.56874828  0.36042605  0.59403880     0.14200
C1411       C  0.41827507  0.40139563  0.88710352    -0.01300
C1412       C  0.39074984  0.41760423  0.86975925    -0.09400
C1413       C  0.36923002  0.39892312  0.84750399    -0.18200
C1414       C  0.37431404  0.36301058  0.84230646     0.04200
C1415       C  0.40287136  0.34684004  0.85939083     0.18400
C1416       C  0.42483218  0.36621390  0.88112852    -0.19600
C1417       C  0.40857581  0.31119852  0.85572027    -0.20900
C1418       C  0.38570018  0.29093099  0.83650665    -0.19400
C1419       C  0.35697757  0.30596073  0.82001176     0.19800
C1420       C  0.35139811  0.34238287  0.82179432     0.01900
C1421       C  0.32276113  0.35644706  0.80342251    -0.14200
C1422       C  0.30015588  0.33506436  0.78498910    -0.11900
C1423       C  0.30523712  0.29926809  0.78453118     0.01400
C1424       C  0.33357349  0.28474041  0.80190078    -0.24000
H1425       H  0.38536761  0.44486172  0.87393295     0.09400
H1426       H  0.34827694  0.41318492  0.83568333     0.13000
H1427       H  0.44597017  0.35343658  0.89466231     0.11700
H1428       H  0.43035813  0.29875184  0.86856454     0.12900
H1429       H  0.39030309  0.26325541  0.83482326     0.12000
H1430       H  0.31713864  0.38375935  0.80262600     0.09000
H1431       H  0.27834026  0.34645073  0.77123590     0.12300
H1432       H  0.33758003  0.25696267  0.80095033     0.14200
C1433       C  0.40479292  0.40086388  0.59636851    -0.01300
C1434       C  0.36922595  0.40813275  0.59779840    -0.09400
C1435       C  0.34739851  0.38922126  0.61940331    -0.18200
C1436       C  0.36064418  0.36237821  0.64060482     0.04200
C1437       C  0.39705767  0.35592863  0.63997855     0.18400
C1438       C  0.41869465  0.37496174  0.61773147    -0.19600
C1439       C  0.41161227  0.33047781  0.66145342    -0.20900
C1440       C  0.39071642  0.31117824  0.68358863    -0.19400
C1441       C  0.35474759  0.31648292  0.68425918     0.19800
C1442       C  0.33907341  0.34185795  0.66247781     0.01900
C1443       C  0.30241216  0.34519220  0.66314441    -0.14200
C1444       C  0.28233995  0.32453088  0.68492789    -0.11900
C1445       C  0.29815148  0.30055081  0.70691355     0.01400
C1446       C  0.33422326  0.29633293  0.70642056    -0.24000
H1447       H  0.35797435  0.42826283  0.58165775     0.09400
H1448       H  0.32040300  0.39645254  0.61899489     0.13000
H1449       H  0.44633181  0.36960850  0.61712111     0.11700
H1450       H  0.43934547  0.32555343  0.66121881     0.12900
H1451       H  0.40271941  0.29176618  0.70006298     0.12000
H1452       H  0.28838480  0.36305491  0.64687890     0.09000
H1453       H  0.25433872  0.32749908  0.68482112     0.12300
H1454       H  0.34617541  0.27692675  0.72297588     0.14200
loop_ 
_geom_bond_atom_site_label_1 
_geom_bond_atom_site_label_2 
_geom_bond_distance 
_geom_bond_site_symmetry_2 
_ccdc_geom_bond_type 
C1           N19   1.348       .  A
C1           C38   1.460       .  S
C1          C706   1.469       .  S
N2           N19   1.320       .  A
N2           N24   1.318       .  A
N2          Co39   2.073   1_554  S
C3           N28   1.341       .  A
C3           C41   1.461       .  S
C3           H48   1.081       .  S
H4           C45   1.081       .  S
C5           N29   1.336       .  A
C5            C9   1.457       .  S
C5           H34   1.081       .  S
Co6          N24   2.075   1_556  S
Co6          N14   2.070   1_556  S
Co6         N773   2.076       .  S
Co6         N749   2.072       .  S
Co6         Cl50   2.440       .  S
N7           C45   1.336       .  A
N7           N14   1.318       .  A
N7         Co735   2.065       .  S
Co8          N28   2.081       .  S
Co8          N15   2.072       .  S
Co8         N734   2.065       .  S
Co8         N738   2.081       .  S
Co8        Cl777   2.447       .  S
C9           N47   1.351       .  A
C9          C618   1.468       .  S
N10          N17   1.318       .  A
N10          N40   1.321       .  A
N10        Co770   2.074   1_554  S
N11          N29   1.318       .  A
N11          N47   1.324       .  A
N11        Co735   2.081       .  S
N12          C41   1.347       .  A
N12          N22   1.320       .  A
H13          C38   1.081       .  S
N14          N35   1.320       .  A
N15          N33   1.318       .  A
N15          N20   1.322       .  A
C16          N20   1.348       .  A
C16          C44   1.459       .  S
C16         C596   1.469       .  S
N17          C32   1.340       .  A
N17         Co39   2.074   1_554  S
C18          N46   1.341       .  A
C18          C21   1.462       .  S
C18          H52   1.081       .  S
C21          N42   1.348       .  A
C21         C684   1.471       .  S
N22          N28   1.320       .  A
N22        Co733   2.072       .  S
N23          C49   1.337       .  A
N23          N25   1.318       .  A
N23        Co766   2.068       .  S
N24          C38   1.340       .  A
N25          N53   1.321       .  A
N25         Co43   2.069       .  S
H26          C49   1.081       .  S
H27          C44   1.081       .  S
N29        Co770   2.068   1_554  S
N30          N42   1.321       .  A
N30          N46   1.317       .  A
N30        Co766   2.070       .  S
C31          N35   1.347       .  A
C31          C45   1.457       .  S
C31         C674   1.464       .  S
C32          C51   1.458       .  S
C32          H36   1.081       .  S
N33          C44   1.338       .  A
N33         Co43   2.075       .  S
C37          N53   1.348       .  A
C37          C49   1.458       .  S
C37         C564   1.464       .  S
Co39        N750   2.068       .  S
Co39        N757   2.070       .  S
Co39        Cl50   2.443       .  S
N40          C51   1.348       .  A
C41         C652   1.468       .  S
Co43        N737   2.074       .  S
Co43        N756   2.068       .  S
Co43       Cl777   2.437       .  S
N46        Co733   2.076       .  S
Cl50       Co735   2.447   1_556  S
Cl50       Co770   2.437       .  S
C51         C586   1.467       .  S
C54          N72   1.352       .  A
C54          C91   1.466       .  S
C54         C464   1.488       .  S
N55          N72   1.325       .  A
N55          N77   1.321       .  A
N55         Co92   2.091   1_565  S
C56          N81   1.342       .  A
C56          C94   1.459       .  S
C56         H101   1.081       .  S
H57          C98   1.081       .  S
C58          N82   1.341       .  A
C58          C62   1.465       .  S
C58          H87   1.081       .  S
Co59         N77   2.096       .  S
Co59         N67   2.092       .  S
Co59         N99   2.101   1_565  S
Co59         N75   2.090   1_565  S
Co59       Cl103   2.468   1_554  S
N60          C98   1.342       .  A
N60          N67   1.322       .  A
N60         Co61   2.093   1_554  S
Co61         N81   2.095   1_566  S
Co61        N791   2.098       .  S
Co61        N795   2.093   1_565  S
Co61       Cl103   2.452       .  S
C62         N100   1.354       .  A
C62         C508   1.490       .  S
N63          N70   1.322       .  A
N63          N93   1.327       .  A
N63         Co96   2.089   1_565  S
N64          N82   1.321       .  A
N64         N100   1.327       .  A
N64        Co788   2.098       .  S
N65          C94   1.350       .  A
N65          N75   1.327       .  A
H66          C91   1.081       .  S
N67          N88   1.326       .  A
N68          N86   1.321       .  A
N68          N73   1.326       .  A
N68        Co788   2.093   1_545  S
C69          N73   1.353       .  A
C69          C97   1.465       .  S
C69         C454   1.487       .  S
N70          C85   1.343       .  A
N70        Co819   2.096   1_565  S
C71          N99   1.346       .  A
C71          C74   1.468       .  S
C71         H105   1.081       .  S
C74          N95   1.351       .  A
C74         C410   1.488       .  S
N75          N81   1.322       .  A
N76         C102   1.343       .  A
N76          N78   1.321       .  A
N76        Co819   2.093       .  S
N77          C91   1.345       .  A
N78         N106   1.326       .  A
N78         Co96   2.086       .  S
H79         C102   1.082       .  S
H80          C97   1.081       .  S
N82         Co96   2.090   1_565  S
N83          N95   1.324       .  A
N83          N99   1.321       .  A
N83         Co92   2.089       .  S
C84          N88   1.351       .  A
C84          C98   1.459       .  S
C84         C542   1.473       .  S
C85         C104   1.460       .  S
C85          H89   1.082       .  S
N86          C97   1.341       .  A
N86         Co96   2.091       .  S
C90         N106   1.350       .  A
C90         C102   1.460       .  S
C90         C376   1.475       .  S
Co92        N797   2.096   1_544  S
Co92        N803   2.093   1_554  S
Co92       Cl103   2.447   1_544  S
N93         C104   1.350       .  A
C94         C432   1.475       .  S
Co96       Cl830   2.463   1_545  S
Cl103      Co823   2.463   1_565  S
C104        C486   1.476       .  S
C107        N125   1.348       .  A
C107        C144   1.462       .  S
C107        C300   1.472       .  S
N108        N125   1.325       .  A
N108        N130   1.323       .  A
N108       Co145   2.083   1_655  S
C109        N134   1.342       .  A
C109        C147   1.465       .  S
C109        H154   1.081       .  S
H110        C151   1.082       .  S
C111        N135   1.345       .  A
C111        C115   1.467       .  S
C111        H140   1.081       .  S
Co112       N130   2.101   1_455  S
Co112       N120   2.097   1_455  S
Co112       N152   2.091       .  S
Co112       N128   2.099       .  S
Co112      Cl156   2.466   1_554  S
N113        C151   1.342       .  A
N113        N120   1.322       .  A
N113       Co114   2.091   1_654  S
Co114       N134   2.097   1_556  S
Co114       N844   2.094   1_455  S
Co114       N848   2.090       .  S
Co114      Cl156   2.450       .  S
C115        N153   1.352       .  A
C115        C344   1.490       .  S
N116        N123   1.321       .  A
N116        N146   1.329       .  A
N116       Co149   2.093   1_655  S
N117        N135   1.321       .  A
N117        N153   1.325       .  A
N117       Co841   2.094   1_655  S
N118        C147   1.355       .  A
N118        N128   1.329       .  A
H119        C144   1.082       .  S
N120        N141   1.327       .  A
N121        N139   1.322       .  A
N121        N126   1.326       .  A
N121       Co841   2.090       .  S
C122        N126   1.349       .  A
C122        C150   1.458       .  S
C122        C234   1.470       .  S
N123        C138   1.342       .  A
N123       Co872   2.102   1_655  S
C124        N152   1.342       .  A
C124        C127   1.464       .  S
C124        H158   1.081       .  S
C127        N148   1.354       .  A
C127        C278   1.490       .  S
N128        N134   1.321       .  A
N129        C155   1.340       .  A
N129        N131   1.321       .  A
N129       Co872   2.080       .  S
N130        C144   1.344       .  A
N131        N159   1.326       .  A
N131       Co149   2.098       .  S
H132        C155   1.082       .  S
H133        C150   1.081       .  S
N135       Co149   2.097   1_655  S
N136        N148   1.328       .  A
N136        N152   1.321       .  A
N136       Co145   2.100       .  S
C137        N141   1.352       .  A
C137        C151   1.459       .  S
C137        C366   1.478       .  S
C138        C157   1.467       .  S
C138        H142   1.081       .  S
N139        C150   1.342       .  A
N139       Co149   2.091       .  S
C143        N159   1.352       .  A
C143        C155   1.456       .  S
C143        C244   1.471       .  S
Co145       N850   2.102   1_454  S
Co145       N856   2.080   1_554  S
Co145      Cl156   2.452   1_554  S
N146        C157   1.354       .  A
C147        C200   1.492       .  S
Co149      Cl883   2.467       .  S
Cl156      Co876   2.468       .  S
C157        C310   1.492       .  S
C160        H161   1.110       .  S
C160        C166   1.549       .  S
C160        C165   1.535       .  S
C160        C164   1.529       .  S
C162        H163   1.111       .  S
C162        C168   1.545       .  S
C162        C167   1.531       .  S
C162        C169   1.538       .  S
C164        C167   1.366       .  D
C164        C718   1.468       .  S
C165        C168   1.381       .  D
C165        C266   1.495       .  S
C166        C169   1.386       .  D
C166        C420   1.510       .  S
C167        C696   1.468       .  S
C168        C256   1.500       .  S
C169        C442   1.491       .  S
C170        H171   1.112       .  S
C170        C176   1.543       .  S
C170        C175   1.538       .  S
C170        C174   1.529       .  S
C172        H173   1.110       .  S
C172        C178   1.551       .  S
C172        C177   1.527       .  S
C172        C179   1.542       .  S
C174        C177   1.366       .  D
C174        C662   1.466       .  S
C175        C178   1.385       .  D
C175        C398   1.489       .  S
C176        C179   1.381       .  D
C176        C288   1.502       .  S
C177        C640   1.467       .  S
C178        C388   1.513       .  S
C179        C322   1.492       .  S
C180        H181   1.111       .  S
C180        C186   1.538       .  S
C180        C185   1.546       .  S
C180        C184   1.529       .  S
C182        H183   1.111       .  S
C182        C188   1.538       .  S
C182        C187   1.528       .  S
C182        C189   1.545       .  S
C184        C187   1.366       .  D
C184        C574   1.467       .  S
C185        C188   1.384       .  D
C185        C530   1.502       .  S
C186        C189   1.382       .  D
C186        C212   1.491       .  S
C187        C552   1.467       .  S
C188        C520   1.495       .  S
C189        C222   1.500       .  S
C190        H191   1.110       .  S
C190        C196   1.542       .  S
C190        C195   1.548       .  S
C190        C194   1.530       .  S
C192        H193   1.111       .  S
C192        C198   1.539       .  S
C192        C197   1.528       .  S
C192        C199   1.546       .  S
C194        C197   1.368       .  D
C194        C630   1.469       .  S
C195        C198   1.385       .  D
C195        C354   1.512       .  S
C196        C199   1.383       .  D
C196        C476   1.492       .  S
C197        C608   1.468       .  S
C198        C332   1.491       .  S
C199        C498   1.509       .  S
C200        C201   1.402       .  A
C200        C205   1.405       .  A
C201        H214   1.082       .  S
C201        C202   1.399       .  A
C202        H215   1.077       .  S
C202        C203   1.414       .  A
C203        C209   1.436       .  A
C203        C204   1.423       .  A
C204        C206   1.401       .  A
C204        C205   1.413       .  A
C205        H216   1.084       .  S
C206        H217   1.084       .  S
C206        C207   1.394       .  A
C207        H218   1.084       .  S
C207        C208   1.401       .  A
C208        C209   1.422       .  A
C208        C213   1.410       .  A
C209        C210   1.417       .  A
C210        H219   1.077       .  S
C210        C211   1.400       .  A
C211        H220   1.083       .  S
C211        C212   1.398       .  A
C212        C213   1.404       .  A
C213        H221   1.084       .  S
C222        C223   1.404       .  A
C222        C227   1.404       .  A
C223        H236   1.079       .  S
C223        C224   1.390       .  A
C224        H237   1.077       .  S
C224        C225   1.409       .  A
C225        C231   1.431       .  A
C225        C226   1.424       .  A
C226        C228   1.400       .  A
C226        C227   1.413       .  A
C227        H238   1.084       .  S
C228        H239   1.084       .  S
C228        C229   1.394       .  A
C229        H240   1.084       .  S
C229        C230   1.401       .  A
C230        C231   1.422       .  A
C230        C235   1.409       .  A
C231        C232   1.418       .  A
C232        H241   1.077       .  S
C232        C233   1.396       .  A
C233        H242   1.084       .  S
C233        C234   1.394       .  A
C234        C235   1.401       .  A
C235        H243   1.085       .  S
C244        C245   1.399       .  A
C244        C249   1.395       .  A
C245        H258   1.084       .  S
C245        C246   1.400       .  A
C246        H259   1.078       .  S
C246        C247   1.416       .  A
C247        C253   1.433       .  A
C247        C248   1.425       .  A
C248        C250   1.398       .  A
C248        C249   1.405       .  A
C249        H260   1.085       .  S
C250        H261   1.084       .  S
C250        C251   1.388       .  A
C251        H262   1.084       .  S
C251        C252   1.399       .  A
C252        C253   1.420       .  A
C252        C257   1.401       .  A
C253        C254   1.417       .  A
C254        H263   1.078       .  S
C254        C255   1.403       .  A
C255        H264   1.083       .  S
C255        C256   1.403       .  A
C256        C257   1.404       .  A
C257        H265   1.082       .  S
C266        C267   1.403       .  A
C266        C271   1.400       .  A
C267        H280   1.083       .  S
C267        C268   1.399       .  A
C268        H281   1.077       .  S
C268        C269   1.416       .  A
C269        C275   1.436       .  A
C269        C270   1.423       .  A
C270        C272   1.400       .  A
C270        C271   1.410       .  A
C271        H282   1.085       .  S
C272        H283   1.084       .  S
C272        C273   1.392       .  A
C273        H284   1.084       .  S
C273        C274   1.400       .  A
C274        C275   1.423       .  A
C274        C279   1.411       .  A
C275        C276   1.416       .  A
C276        H285   1.077       .  S
C276        C277   1.400       .  A
C277        H286   1.082       .  S
C277        C278   1.402       .  A
C278        C279   1.404       .  A
C279        H287   1.084       .  S
C288        C289   1.404       .  A
C288        C293   1.405       .  A
C289        H302   1.079       .  S
C289        C290   1.391       .  A
C290        H303   1.076       .  S
C290        C291   1.410       .  A
C291        C297   1.432       .  A
C291        C292   1.424       .  A
C292        C294   1.400       .  A
C292        C293   1.414       .  A
C293        H304   1.084       .  S
C294        H305   1.084       .  S
C294        C295   1.394       .  A
C295        H306   1.084       .  S
C295        C296   1.402       .  A
C296        C297   1.422       .  A
C296        C301   1.410       .  A
C297        C298   1.418       .  A
C298        H307   1.076       .  S
C298        C299   1.397       .  A
C299        H308   1.084       .  S
C299        C300   1.394       .  A
C300        C301   1.402       .  A
C301        H309   1.084       .  S
C310        C311   1.402       .  A
C310        C315   1.406       .  A
C311        H324   1.082       .  S
C311        C312   1.398       .  A
C312        H325   1.077       .  S
C312        C313   1.414       .  A
C313        C319   1.435       .  A
C313        C314   1.423       .  A
C314        C316   1.402       .  A
C314        C315   1.414       .  A
C315        H326   1.084       .  S
C316        H327   1.084       .  S
C316        C317   1.395       .  A
C317        H328   1.084       .  S
C317        C318   1.401       .  A
C318        C319   1.422       .  A
C318        C323   1.410       .  A
C319        C320   1.416       .  A
C320        H329   1.077       .  S
C320        C321   1.399       .  A
C321        H330   1.084       .  S
C321        C322   1.397       .  A
C322        C323   1.406       .  A
C323        H331   1.084       .  S
C332        C333   1.398       .  A
C332        C337   1.404       .  A
C333        H346   1.084       .  S
C333        C334   1.399       .  A
C334        H347   1.077       .  S
C334        C335   1.416       .  A
C335        C341   1.435       .  A
C335        C336   1.423       .  A
C336        C338   1.400       .  A
C336        C337   1.408       .  A
C337        H348   1.084       .  S
C338        H349   1.084       .  S
C338        C339   1.392       .  A
C339        H350   1.084       .  S
C339        C340   1.401       .  A
C340        C341   1.423       .  A
C340        C345   1.411       .  A
C341        C342   1.415       .  A
C342        H351   1.077       .  S
C342        C343   1.399       .  A
C343        H352   1.083       .  S
C343        C344   1.402       .  A
C344        C345   1.404       .  A
C345        H353   1.084       .  S
C354        C355   1.408       .  A
C354        C359   1.408       .  A
C355        H368   1.080       .  S
C355        C356   1.394       .  A
C356        H369   1.078       .  S
C356        C357   1.409       .  A
C357        C363   1.433       .  A
C357        C358   1.422       .  A
C358        C360   1.401       .  A
C358        C359   1.414       .  A
C359        H370   1.083       .  S
C360        H371   1.084       .  S
C360        C361   1.395       .  A
C361        H372   1.084       .  S
C361        C362   1.402       .  A
C362        C363   1.422       .  A
C362        C367   1.411       .  A
C363        C364   1.417       .  A
C364        H373   1.078       .  S
C364        C365   1.399       .  A
C365        H374   1.084       .  S
C365        C366   1.397       .  A
C366        C367   1.403       .  A
C367        H375   1.084       .  S
C376        C377   1.396       .  A
C376        C381   1.403       .  A
C377        H390   1.083       .  S
C377        C378   1.398       .  A
C378        H391   1.077       .  S
C378        C379   1.417       .  A
C379        C385   1.431       .  A
C379        C380   1.421       .  A
C380        C382   1.402       .  A
C380        C381   1.410       .  A
C381        H392   1.085       .  S
C382        H393   1.084       .  S
C382        C383   1.395       .  A
C383        H394   1.084       .  S
C383        C384   1.401       .  A
C384        C385   1.422       .  A
C384        C389   1.414       .  A
C385        C386   1.408       .  A
C386        H395   1.077       .  S
C386        C387   1.393       .  A
C387        H396   1.079       .  S
C387        C388   1.408       .  A
C388        C389   1.409       .  A
C389        H397   1.083       .  S
C398        C399   1.397       .  A
C398        C403   1.403       .  A
C399        H412   1.083       .  S
C399        C400   1.400       .  A
C400        H413   1.077       .  S
C400        C401   1.417       .  A
C401        C407   1.435       .  A
C401        C402   1.423       .  A
C402        C404   1.400       .  A
C402        C403   1.408       .  A
C403        H414   1.085       .  S
C404        H415   1.084       .  S
C404        C405   1.392       .  A
C405        H416   1.084       .  S
C405        C406   1.400       .  A
C406        C407   1.424       .  A
C406        C411   1.411       .  A
C407        C408   1.414       .  A
C408        H417   1.077       .  S
C408        C409   1.399       .  A
C409        H418   1.083       .  S
C409        C410   1.402       .  A
C410        C411   1.403       .  A
C411        H419   1.084       .  S
C420        C421   1.407       .  A
C420        C425   1.409       .  A
C421        H434   1.079       .  S
C421        C422   1.390       .  A
C422        H435   1.078       .  S
C422        C423   1.407       .  A
C423        C429   1.429       .  A
C423        C424   1.422       .  A
C424        C426   1.402       .  A
C424        C425   1.414       .  A
C425        H436   1.083       .  S
C426        H437   1.084       .  S
C426        C427   1.396       .  A
C427        H438   1.084       .  S
C427        C428   1.403       .  A
C428        C429   1.420       .  A
C428        C433   1.411       .  A
C429        C430   1.416       .  A
C430        H439   1.078       .  S
C430        C431   1.396       .  A
C431        H440   1.084       .  S
C431        C432   1.395       .  A
C432        C433   1.404       .  A
C433        H441   1.084       .  S
C442        C443   1.401       .  A
C442        C447   1.401       .  A
C443        H456   1.083       .  S
C443        C444   1.397       .  A
C444        H457   1.076       .  S
C444        C445   1.415       .  A
C445        C451   1.433       .  A
C445        C446   1.423       .  A
C446        C448   1.400       .  A
C446        C447   1.409       .  A
C447        H458   1.084       .  S
C448        H459   1.084       .  S
C448        C449   1.392       .  A
C449        H460   1.084       .  S
C449        C450   1.400       .  A
C450        C451   1.423       .  A
C450        C455   1.409       .  A
C451        C452   1.415       .  A
C452        H461   1.076       .  S
C452        C453   1.398       .  A
C453        H462   1.082       .  S
C453        C454   1.401       .  A
C454        C455   1.404       .  A
C455        H463   1.084       .  S
C464        C465   1.402       .  A
C464        C469   1.404       .  A
C465        H478   1.083       .  S
C465        C466   1.398       .  A
C466        H479   1.078       .  S
C466        C467   1.414       .  A
C467        C473   1.435       .  A
C467        C468   1.424       .  A
C468        C470   1.400       .  A
C468        C469   1.411       .  A
C469        H480   1.084       .  S
C470        H481   1.084       .  S
C470        C471   1.392       .  A
C471        H482   1.084       .  S
C471        C472   1.400       .  A
C472        C473   1.422       .  A
C472        C477   1.408       .  A
C473        C474   1.417       .  A
C474        H483   1.078       .  S
C474        C475   1.400       .  A
C475        H484   1.083       .  S
C475        C476   1.398       .  A
C476        C477   1.404       .  A
C477        H485   1.084       .  S
C486        C487   1.395       .  A
C486        C491   1.403       .  A
C487        H500   1.084       .  S
C487        C488   1.398       .  A
C488        H501   1.077       .  S
C488        C489   1.418       .  A
C489        C495   1.433       .  A
C489        C490   1.422       .  A
C490        C492   1.402       .  A
C490        C491   1.411       .  A
C491        H502   1.084       .  S
C492        H503   1.084       .  S
C492        C493   1.395       .  A
C493        H504   1.084       .  S
C493        C494   1.401       .  A
C494        C495   1.423       .  A
C494        C499   1.415       .  A
C495        C496   1.409       .  A
C496        H505   1.077       .  S
C496        C497   1.392       .  A
C497        H506   1.079       .  S
C497        C498   1.406       .  A
C498        C499   1.408       .  A
C499        H507   1.083       .  S
C508        C509   1.402       .  A
C508        C513   1.404       .  A
C509        H522   1.082       .  S
C509        C510   1.400       .  A
C510        H523   1.077       .  S
C510        C511   1.415       .  A
C511        C517   1.436       .  A
C511        C512   1.423       .  A
C512        C514   1.400       .  A
C512        C513   1.410       .  A
C513        H524   1.084       .  S
C514        H525   1.084       .  S
C514        C515   1.392       .  A
C515        H526   1.084       .  S
C515        C516   1.400       .  A
C516        C517   1.423       .  A
C516        C521   1.410       .  A
C517        C518   1.416       .  A
C518        H527   1.076       .  S
C518        C519   1.400       .  A
C519        H528   1.083       .  S
C519        C520   1.403       .  A
C520        C521   1.401       .  A
C521        H529   1.085       .  S
C530        C531   1.403       .  A
C530        C535   1.405       .  A
C531        H544   1.083       .  S
C531        C532   1.404       .  A
C532        H545   1.078       .  S
C532        C533   1.418       .  A
C533        C539   1.434       .  A
C533        C534   1.420       .  A
C534        C536   1.400       .  A
C534        C535   1.401       .  A
C535        H546   1.082       .  S
C536        H547   1.084       .  S
C536        C537   1.388       .  A
C537        H548   1.084       .  S
C537        C538   1.398       .  A
C538        C539   1.425       .  A
C538        C543   1.406       .  A
C539        C540   1.416       .  A
C540        H549   1.078       .  S
C540        C541   1.401       .  A
C541        H550   1.084       .  S
C541        C542   1.400       .  A
C542        C543   1.396       .  A
C543        H551   1.085       .  S
C552        C553   1.396       .  A
C552        C557   1.393       .  A
C553        H566   1.084       .  S
C553        C554   1.389       .  A
C554        H567   1.077       .  S
C554        C555   1.414       .  A
C555        C561   1.423       .  A
C555        C556   1.424       .  A
C556        C558   1.398       .  A
C556        C557   1.399       .  A
C557        H568   1.085       .  S
C558        H569   1.084       .  S
C558        C559   1.387       .  A
C559        H570   1.084       .  S
C559        C560   1.399       .  A
C560        C561   1.422       .  A
C560        C565   1.398       .  A
C561        C562   1.415       .  A
C562        H571   1.077       .  S
C562        C563   1.391       .  A
C563        H572   1.083       .  S
C563        C564   1.396       .  A
C564        C565   1.398       .  A
C565        H573   1.085       .  S
C574        C575   1.394       .  A
C574        C579   1.395       .  A
C575        H588   1.084       .  S
C575        C576   1.389       .  A
C576        H589   1.076       .  S
C576        C577   1.415       .  A
C577        C583   1.424       .  A
C577        C578   1.423       .  A
C578        C580   1.399       .  A
C578        C579   1.402       .  A
C579        H590   1.084       .  S
C580        H591   1.084       .  S
C580        C581   1.390       .  A
C581        H592   1.084       .  S
C581        C582   1.400       .  A
C582        C583   1.423       .  A
C582        C587   1.404       .  A
C583        C584   1.413       .  A
C584        H593   1.076       .  S
C584        C585   1.390       .  A
C585        H594   1.084       .  S
C585        C586   1.396       .  A
C586        C587   1.400       .  A
C587        H595   1.084       .  S
C596        C597   1.397       .  A
C596        C601   1.400       .  A
C597        H610   1.083       .  S
C597        C598   1.391       .  A
C598        H611   1.076       .  S
C598        C599   1.414       .  A
C599        C605   1.424       .  A
C599        C600   1.422       .  A
C600        C602   1.400       .  A
C600        C601   1.402       .  A
C601        H612   1.084       .  S
C602        H613   1.084       .  S
C602        C603   1.389       .  A
C603        H614   1.084       .  S
C603        C604   1.399       .  A
C604        C605   1.424       .  A
C604        C609   1.401       .  A
C605        C606   1.414       .  A
C606        H615   1.076       .  S
C606        C607   1.389       .  A
C607        H616   1.084       .  S
C607        C608   1.395       .  A
C608        C609   1.395       .  A
C609        H617   1.084       .  S
C618        C619   1.399       .  A
C618        C623   1.398       .  A
C619        H632   1.082       .  S
C619        C620   1.391       .  A
C620        H633   1.078       .  S
C620        C621   1.412       .  A
C621        C627   1.422       .  A
C621        C622   1.422       .  A
C622        C624   1.399       .  A
C622        C623   1.402       .  A
C623        H634   1.085       .  S
C624        H635   1.084       .  S
C624        C625   1.389       .  A
C625        H636   1.084       .  S
C625        C626   1.399       .  A
C626        C627   1.421       .  A
C626        C631   1.398       .  A
C627        C628   1.416       .  A
C628        H637   1.077       .  S
C628        C629   1.392       .  A
C629        H638   1.083       .  S
C629        C630   1.394       .  A
C630        C631   1.398       .  A
C631        H639   1.085       .  S
C640        C641   1.394       .  A
C640        C645   1.395       .  A
C641        H654   1.084       .  S
C641        C642   1.389       .  A
C642        H655   1.076       .  S
C642        C643   1.415       .  A
C643        C649   1.424       .  A
C643        C644   1.423       .  A
C644        C646   1.399       .  A
C644        C645   1.403       .  A
C645        H656   1.084       .  S
C646        H657   1.084       .  S
C646        C647   1.390       .  A
C647        H658   1.084       .  S
C647        C648   1.400       .  A
C648        C649   1.423       .  A
C648        C653   1.404       .  A
C649        C650   1.413       .  A
C650        H659   1.076       .  S
C650        C651   1.390       .  A
C651        H660   1.084       .  S
C651        C652   1.397       .  A
C652        C653   1.399       .  A
C653        H661   1.084       .  S
C662        C663   1.395       .  A
C662        C667   1.393       .  A
C663        H676   1.084       .  S
C663        C664   1.388       .  A
C664        H677   1.076       .  S
C664        C665   1.414       .  A
C665        C671   1.422       .  A
C665        C666   1.423       .  A
C666        C668   1.398       .  A
C666        C667   1.399       .  A
C667        H678   1.084       .  S
C668        H679   1.084       .  S
C668        C669   1.387       .  A
C669        H680   1.084       .  S
C669        C670   1.399       .  A
C670        C671   1.422       .  A
C670        C675   1.398       .  A
C671        C672   1.414       .  A
C672        H681   1.077       .  S
C672        C673   1.390       .  A
C673        H682   1.083       .  S
C673        C674   1.396       .  A
C674        C675   1.398       .  A
C675        H683   1.085       .  S
C684        C685   1.398       .  A
C684        C689   1.400       .  A
C685        H698   1.084       .  S
C685        C686   1.391       .  A
C686        H699   1.076       .  S
C686        C687   1.413       .  A
C687        C693   1.425       .  A
C687        C688   1.423       .  A
C688        C690   1.400       .  A
C688        C689   1.404       .  A
C689        H700   1.083       .  S
C690        H701   1.084       .  S
C690        C691   1.389       .  A
C691        H702   1.084       .  S
C691        C692   1.399       .  A
C692        C693   1.423       .  A
C692        C697   1.401       .  A
C693        C694   1.416       .  A
C694        H703   1.076       .  S
C694        C695   1.392       .  A
C695        H704   1.084       .  S
C695        C696   1.395       .  A
C696        C697   1.395       .  A
C697        H705   1.083       .  S
C706        C707   1.398       .  A
C706        C711   1.399       .  A
C707        H720   1.084       .  S
C707        C708   1.390       .  A
C708        H721   1.075       .  S
C708        C709   1.413       .  A
C709        C715   1.424       .  A
C709        C710   1.423       .  A
C710        C712   1.399       .  A
C710        C711   1.403       .  A
C711        H722   1.083       .  S
C712        H723   1.084       .  S
C712        C713   1.389       .  A
C713        H724   1.084       .  S
C713        C714   1.399       .  A
C714        C715   1.422       .  A
C714        C719   1.399       .  A
C715        C716   1.416       .  A
C716        H725   1.075       .  S
C716        C717   1.392       .  A
C717        H726   1.083       .  S
C717        C718   1.392       .  A
C718        C719   1.397       .  A
C719        H727   1.084       .  S
C728        N746   1.348       .  A
C728        C765   1.460       .  S
C728       C1433   1.469       .  S
N729        N746   1.320       .  A
N729        N751   1.318       .  A
N729       Co766   2.073       .  S
C730        N755   1.341       .  A
C730        C768   1.461       .  S
C730        H775   1.081       .  S
H731        C772   1.081       .  S
C732        N756   1.336       .  A
C732        C736   1.457       .  S
C732        H761   1.081       .  S
Co733       N751   2.075       .  S
Co733       N741   2.070       .  S
Co733      Cl777   2.440       .  S
N734        C772   1.336       .  A
N734        N741   1.318       .  A
Co735       N755   2.081   1_554  S
Co735       N742   2.072   1_554  S
C736        N774   1.351       .  A
C736       C1345   1.468       .  S
N737        N744   1.318       .  A
N737        N767   1.321       .  A
N738        N756   1.318       .  A
N738        N774   1.324       .  A
N739        C768   1.347       .  A
N739        N749   1.320       .  A
H740        C765   1.081       .  S
N741        N762   1.320       .  A
N742        N760   1.318       .  A
N742        N747   1.322       .  A
C743        N747   1.348       .  A
C743        C771   1.459       .  S
C743       C1323   1.469       .  S
N744        C759   1.340       .  A
N744       Co766   2.074       .  S
C745        N773   1.341       .  A
C745        C748   1.462       .  S
C745        H779   1.081       .  S
C748        N769   1.348       .  A
C748       C1411   1.471       .  S
N749        N755   1.320       .  A
N750        C776   1.337       .  A
N750        N752   1.318       .  A
N751        C765   1.340       .  A
N752        N780   1.321       .  A
N752       Co770   2.069       .  S
H753        C776   1.082       .  S
H754        C771   1.081       .  S
N757        N769   1.321       .  A
N757        N773   1.317       .  A
C758        N762   1.347       .  A
C758        C772   1.457       .  S
C758       C1401   1.464       .  S
C759        C778   1.458       .  S
C759        H763   1.081       .  S
N760        C771   1.338       .  A
N760       Co770   2.075       .  S
C764        N780   1.348       .  A
C764        C776   1.458       .  S
C764       C1291   1.464       .  S
Co766      Cl777   2.443       .  S
N767        C778   1.348       .  A
C768       C1379   1.468       .  S
C778       C1313   1.467       .  S
C781        N799   1.352       .  A
C781        C818   1.466       .  S
C781       C1191   1.488       .  S
N782        N799   1.325       .  A
N782        N804   1.321       .  A
N782       Co819   2.091   1_565  S
C783        N808   1.342       .  A
C783        C821   1.459       .  S
C783        H828   1.081       .  S
H784        C825   1.081       .  S
C785        N809   1.341       .  A
C785        C789   1.465       .  S
C785        H814   1.081       .  S
Co786       N804   2.096       .  S
Co786       N794   2.092       .  S
Co786       N826   2.101   1_565  S
Co786       N802   2.090   1_565  S
Co786      Cl830   2.468       .  S
N787        C825   1.342       .  A
N787        N794   1.322       .  A
N787       Co788   2.093       .  S
Co788       N808   2.095   1_565  S
Co788      Cl830   2.452       .  S
C789        N827   1.354       .  A
C789       C1235   1.490       .  S
N790        N797   1.322       .  A
N790        N820   1.327       .  A
N790       Co823   2.089   1_565  S
N791        N809   1.321       .  A
N791        N827   1.327       .  A
N792        C821   1.350       .  A
N792        N802   1.327       .  A
H793        C818   1.081       .  S
N794        N815   1.326       .  A
N795        N813   1.321       .  A
N795        N800   1.326       .  A
C796        N800   1.353       .  A
C796        C824   1.465       .  S
C796       C1181   1.487       .  S
N797        C812   1.343       .  A
C798        N826   1.346       .  A
C798        C801   1.468       .  S
C798        H832   1.081       .  S
C801        N822   1.351       .  A
C801       C1137   1.488       .  S
N802        N808   1.322       .  A
N803        C829   1.343       .  A
N803        N805   1.321       .  A
N804        C818   1.345       .  A
N805        N833   1.326       .  A
N805       Co823   2.086       .  S
H806        C829   1.081       .  S
H807        C824   1.081       .  S
N809       Co823   2.090   1_565  S
N810        N822   1.324       .  A
N810        N826   1.321       .  A
N810       Co819   2.089       .  S
C811        N815   1.351       .  A
C811        C825   1.459       .  S
C811       C1269   1.473       .  S
C812        C831   1.460       .  S
C812        H816   1.081       .  S
N813        C824   1.341       .  A
N813       Co823   2.091       .  S
C817        N833   1.350       .  A
C817        C829   1.460       .  S
C817       C1103   1.475       .  S
Co819      Cl830   2.447   1_545  S
N820        C831   1.350       .  A
C821       C1159   1.475       .  S
C831       C1213   1.476       .  S
C834        N852   1.348       .  A
C834        C871   1.462       .  S
C834       C1027   1.472       .  S
N835        N852   1.325       .  A
N835        N857   1.323       .  A
N835       Co872   2.083   1_655  S
C836        N861   1.342       .  A
C836        C874   1.465       .  S
C836        H881   1.081       .  S
H837        C878   1.082       .  S
C838        N862   1.345       .  A
C838        C842   1.467       .  S
C838        H867   1.082       .  S
Co839       N857   2.102   1_455  S
Co839       N847   2.097   1_455  S
Co839       N879   2.091       .  S
Co839       N855   2.099       .  S
Co839      Cl883   2.466       .  S
N840        C878   1.342       .  A
N840        N847   1.322       .  A
N840       Co841   2.091   1_655  S
Co841       N861   2.097       .  S
Co841      Cl883   2.450       .  S
C842        N880   1.352       .  A
C842       C1071   1.489       .  S
N843        N850   1.321       .  A
N843        N873   1.329       .  A
N843       Co876   2.093   1_655  S
N844        N862   1.321       .  A
N844        N880   1.325       .  A
N845        C874   1.355       .  A
N845        N855   1.329       .  A
H846        C871   1.082       .  S
N847        N868   1.327       .  A
N848        N866   1.322       .  A
N848        N853   1.326       .  A
C849        N853   1.349       .  A
C849        C877   1.458       .  S
C849        C961   1.471       .  S
N850        C865   1.342       .  A
C851        N879   1.342       .  A
C851        C854   1.464       .  S
C851        H885   1.081       .  S
C854        N875   1.354       .  A
C854       C1005   1.490       .  S
N855        N861   1.321       .  A
N856        C882   1.340       .  A
N856        N858   1.321       .  A
N857        C871   1.344       .  A
N858        N886   1.326       .  A
N858       Co876   2.098       .  S
H859        C882   1.082       .  S
H860        C877   1.082       .  S
N862       Co876   2.097   1_655  S
N863        N875   1.328       .  A
N863        N879   1.321       .  A
N863       Co872   2.100       .  S
C864        N868   1.352       .  A
C864        C878   1.459       .  S
C864       C1093   1.478       .  S
C865        C884   1.467       .  S
C865        H869   1.081       .  S
N866        C877   1.342       .  A
N866       Co876   2.091       .  S
C870        N886   1.352       .  A
C870        C882   1.456       .  S
C870        C971   1.471       .  S
Co872      Cl883   2.451       .  S
N873        C884   1.354       .  A
C874        C927   1.492       .  S
C884       C1037   1.492       .  S
C887        H888   1.110       .  S
C887        C893   1.549       .  S
C887        C892   1.535       .  S
C887        C891   1.529       .  S
C889        H890   1.111       .  S
C889        C895   1.545       .  S
C889        C894   1.531       .  S
C889        C896   1.538       .  S
C891        C894   1.366       .  D
C891       C1445   1.468       .  S
C892        C895   1.381       .  D
C892        C993   1.495       .  S
C893        C896   1.386       .  D
C893       C1147   1.510       .  S
C894       C1423   1.468       .  S
C895        C983   1.500       .  S
C896       C1169   1.491       .  S
C897        H898   1.112       .  S
C897        C903   1.543       .  S
C897        C902   1.538       .  S
C897        C901   1.529       .  S
C899        H900   1.110       .  S
C899        C905   1.551       .  S
C899        C904   1.527       .  S
C899        C906   1.542       .  S
C901        C904   1.366       .  D
C901       C1389   1.466       .  S
C902        C905   1.385       .  D
C902       C1125   1.489       .  S
C903        C906   1.381       .  D
C903       C1015   1.502       .  S
C904       C1367   1.467       .  S
C905       C1115   1.513       .  S
C906       C1049   1.492       .  S
C907        H908   1.111       .  S
C907        C913   1.538       .  S
C907        C912   1.546       .  S
C907        C911   1.529       .  S
C909        H910   1.111       .  S
C909        C915   1.538       .  S
C909        C914   1.527       .  S
C909        C916   1.545       .  S
C911        C914   1.366       .  D
C911       C1301   1.467       .  S
C912        C915   1.384       .  D
C912       C1257   1.502       .  S
C913        C916   1.382       .  D
C913        C939   1.491       .  S
C914       C1279   1.467       .  S
C915       C1247   1.495       .  S
C916        C949   1.500       .  S
C917        H918   1.110       .  S
C917        C923   1.542       .  S
C917        C922   1.548       .  S
C917        C921   1.530       .  S
C919        H920   1.111       .  S
C919        C925   1.539       .  S
C919        C924   1.528       .  S
C919        C926   1.546       .  S
C921        C924   1.368       .  D
C921       C1357   1.469       .  S
C922        C925   1.385       .  D
C922       C1081   1.512       .  S
C923        C926   1.383       .  D
C923       C1203   1.492       .  S
C924       C1335   1.468       .  S
C925       C1059   1.491       .  S
C926       C1225   1.509       .  S
C927        C928   1.402       .  A
C927        C932   1.405       .  A
C928        H941   1.082       .  S
C928        C929   1.399       .  A
C929        H942   1.077       .  S
C929        C930   1.414       .  A
C930        C936   1.436       .  A
C930        C931   1.423       .  A
C931        C933   1.401       .  A
C931        C932   1.413       .  A
C932        H943   1.084       .  S
C933        H944   1.084       .  S
C933        C934   1.393       .  A
C934        H945   1.084       .  S
C934        C935   1.401       .  A
C935        C936   1.422       .  A
C935        C940   1.410       .  A
C936        C937   1.417       .  A
C937        H946   1.077       .  S
C937        C938   1.400       .  A
C938        H947   1.084       .  S
C938        C939   1.398       .  A
C939        C940   1.404       .  A
C940        H948   1.084       .  S
C949        C950   1.404       .  A
C949        C954   1.404       .  A
C950        H963   1.079       .  S
C950        C951   1.390       .  A
C951        H964   1.077       .  S
C951        C952   1.409       .  A
C952        C958   1.431       .  A
C952        C953   1.424       .  A
C953        C955   1.400       .  A
C953        C954   1.413       .  A
C954        H965   1.084       .  S
C955        H966   1.084       .  S
C955        C956   1.394       .  A
C956        H967   1.084       .  S
C956        C957   1.402       .  A
C957        C958   1.422       .  A
C957        C962   1.409       .  A
C958        C959   1.418       .  A
C959        H968   1.077       .  S
C959        C960   1.396       .  A
C960        H969   1.084       .  S
C960        C961   1.394       .  A
C961        C962   1.401       .  A
C962        H970   1.085       .  S
C971        C972   1.399       .  A
C971        C976   1.395       .  A
C972        H985   1.084       .  S
C972        C973   1.400       .  A
C973        H986   1.078       .  S
C973        C974   1.416       .  A
C974        C980   1.433       .  A
C974        C975   1.425       .  A
C975        C977   1.398       .  A
C975        C976   1.405       .  A
C976        H987   1.085       .  S
C977        H988   1.084       .  S
C977        C978   1.388       .  A
C978        H989   1.084       .  S
C978        C979   1.399       .  A
C979        C980   1.420       .  A
C979        C984   1.401       .  A
C980        C981   1.417       .  A
C981        H990   1.078       .  S
C981        C982   1.403       .  A
C982        H991   1.083       .  S
C982        C983   1.403       .  A
C983        C984   1.404       .  A
C984        H992   1.082       .  S
C993        C994   1.403       .  A
C993        C998   1.400       .  A
C994       H1007   1.083       .  S
C994        C995   1.399       .  A
C995       H1008   1.077       .  S
C995        C996   1.416       .  A
C996       C1002   1.436       .  A
C996        C997   1.423       .  A
C997        C999   1.400       .  A
C997        C998   1.410       .  A
C998       H1009   1.084       .  S
C999       H1010   1.084       .  S
C999       C1000   1.392       .  A
C1000      H1011   1.084       .  S
C1000      C1001   1.400       .  A
C1001      C1002   1.423       .  A
C1001      C1006   1.411       .  A
C1002      C1003   1.416       .  A
C1003      H1012   1.077       .  S
C1003      C1004   1.400       .  A
C1004      H1013   1.083       .  S
C1004      C1005   1.402       .  A
C1005      C1006   1.404       .  A
C1006      H1014   1.084       .  S
C1015      C1016   1.404       .  A
C1015      C1020   1.405       .  A
C1016      H1029   1.079       .  S
C1016      C1017   1.391       .  A
C1017      H1030   1.076       .  S
C1017      C1018   1.410       .  A
C1018      C1024   1.432       .  A
C1018      C1019   1.424       .  A
C1019      C1021   1.400       .  A
C1019      C1020   1.414       .  A
C1020      H1031   1.084       .  S
C1021      H1032   1.084       .  S
C1021      C1022   1.394       .  A
C1022      H1033   1.084       .  S
C1022      C1023   1.402       .  A
C1023      C1024   1.422       .  A
C1023      C1028   1.410       .  A
C1024      C1025   1.418       .  A
C1025      H1034   1.076       .  S
C1025      C1026   1.397       .  A
C1026      H1035   1.084       .  S
C1026      C1027   1.394       .  A
C1027      C1028   1.402       .  A
C1028      H1036   1.084       .  S
C1037      C1038   1.402       .  A
C1037      C1042   1.406       .  A
C1038      H1051   1.082       .  S
C1038      C1039   1.398       .  A
C1039      H1052   1.077       .  S
C1039      C1040   1.414       .  A
C1040      C1046   1.435       .  A
C1040      C1041   1.423       .  A
C1041      C1043   1.402       .  A
C1041      C1042   1.414       .  A
C1042      H1053   1.084       .  S
C1043      H1054   1.083       .  S
C1043      C1044   1.395       .  A
C1044      H1055   1.084       .  S
C1044      C1045   1.401       .  A
C1045      C1046   1.422       .  A
C1045      C1050   1.410       .  A
C1046      C1047   1.416       .  A
C1047      H1056   1.077       .  S
C1047      C1048   1.399       .  A
C1048      H1057   1.084       .  S
C1048      C1049   1.397       .  A
C1049      C1050   1.406       .  A
C1050      H1058   1.084       .  S
C1059      C1060   1.398       .  A
C1059      C1064   1.404       .  A
C1060      H1073   1.084       .  S
C1060      C1061   1.399       .  A
C1061      H1074   1.077       .  S
C1061      C1062   1.416       .  A
C1062      C1068   1.435       .  A
C1062      C1063   1.423       .  A
C1063      C1065   1.400       .  A
C1063      C1064   1.408       .  A
C1064      H1075   1.084       .  S
C1065      H1076   1.084       .  S
C1065      C1066   1.392       .  A
C1066      H1077   1.084       .  S
C1066      C1067   1.401       .  A
C1067      C1068   1.423       .  A
C1067      C1072   1.411       .  A
C1068      C1069   1.415       .  A
C1069      H1078   1.077       .  S
C1069      C1070   1.399       .  A
C1070      H1079   1.083       .  S
C1070      C1071   1.402       .  A
C1071      C1072   1.404       .  A
C1072      H1080   1.084       .  S
C1081      C1082   1.408       .  A
C1081      C1086   1.408       .  A
C1082      H1095   1.080       .  S
C1082      C1083   1.394       .  A
C1083      H1096   1.078       .  S
C1083      C1084   1.409       .  A
C1084      C1090   1.433       .  A
C1084      C1085   1.422       .  A
C1085      C1087   1.401       .  A
C1085      C1086   1.414       .  A
C1086      H1097   1.083       .  S
C1087      H1098   1.084       .  S
C1087      C1088   1.395       .  A
C1088      H1099   1.084       .  S
C1088      C1089   1.402       .  A
C1089      C1090   1.422       .  A
C1089      C1094   1.411       .  A
C1090      C1091   1.417       .  A
C1091      H1100   1.078       .  S
C1091      C1092   1.399       .  A
C1092      H1101   1.083       .  S
C1092      C1093   1.397       .  A
C1093      C1094   1.403       .  A
C1094      H1102   1.084       .  S
C1103      C1104   1.396       .  A
C1103      C1108   1.403       .  A
C1104      H1117   1.084       .  S
C1104      C1105   1.398       .  A
C1105      H1118   1.077       .  S
C1105      C1106   1.417       .  A
C1106      C1112   1.431       .  A
C1106      C1107   1.421       .  A
C1107      C1109   1.402       .  A
C1107      C1108   1.410       .  A
C1108      H1119   1.085       .  S
C1109      H1120   1.084       .  S
C1109      C1110   1.395       .  A
C1110      H1121   1.084       .  S
C1110      C1111   1.401       .  A
C1111      C1112   1.422       .  A
C1111      C1116   1.414       .  A
C1112      C1113   1.408       .  A
C1113      H1122   1.078       .  S
C1113      C1114   1.393       .  A
C1114      H1123   1.079       .  S
C1114      C1115   1.408       .  A
C1115      C1116   1.409       .  A
C1116      H1124   1.082       .  S
C1125      C1126   1.397       .  A
C1125      C1130   1.403       .  A
C1126      H1139   1.083       .  S
C1126      C1127   1.400       .  A
C1127      H1140   1.077       .  S
C1127      C1128   1.417       .  A
C1128      C1134   1.435       .  A
C1128      C1129   1.423       .  A
C1129      C1131   1.400       .  A
C1129      C1130   1.408       .  A
C1130      H1141   1.085       .  S
C1131      H1142   1.084       .  S
C1131      C1132   1.392       .  A
C1132      H1143   1.084       .  S
C1132      C1133   1.400       .  A
C1133      C1134   1.424       .  A
C1133      C1138   1.411       .  A
C1134      C1135   1.414       .  A
C1135      H1144   1.077       .  S
C1135      C1136   1.399       .  A
C1136      H1145   1.083       .  S
C1136      C1137   1.402       .  A
C1137      C1138   1.403       .  A
C1138      H1146   1.084       .  S
C1147      C1148   1.407       .  A
C1147      C1152   1.409       .  A
C1148      H1161   1.079       .  S
C1148      C1149   1.390       .  A
C1149      H1162   1.078       .  S
C1149      C1150   1.407       .  A
C1150      C1156   1.429       .  A
C1150      C1151   1.422       .  A
C1151      C1153   1.402       .  A
C1151      C1152   1.414       .  A
C1152      H1163   1.083       .  S
C1153      H1164   1.083       .  S
C1153      C1154   1.396       .  A
C1154      H1165   1.084       .  S
C1154      C1155   1.403       .  A
C1155      C1156   1.420       .  A
C1155      C1160   1.411       .  A
C1156      C1157   1.416       .  A
C1157      H1166   1.077       .  S
C1157      C1158   1.396       .  A
C1158      H1167   1.084       .  S
C1158      C1159   1.395       .  A
C1159      C1160   1.404       .  A
C1160      H1168   1.084       .  S
C1169      C1170   1.401       .  A
C1169      C1174   1.401       .  A
C1170      H1183   1.083       .  S
C1170      C1171   1.397       .  A
C1171      H1184   1.076       .  S
C1171      C1172   1.415       .  A
C1172      C1178   1.433       .  A
C1172      C1173   1.423       .  A
C1173      C1175   1.400       .  A
C1173      C1174   1.409       .  A
C1174      H1185   1.084       .  S
C1175      H1186   1.084       .  S
C1175      C1176   1.392       .  A
C1176      H1187   1.084       .  S
C1176      C1177   1.400       .  A
C1177      C1178   1.423       .  A
C1177      C1182   1.409       .  A
C1178      C1179   1.415       .  A
C1179      H1188   1.076       .  S
C1179      C1180   1.398       .  A
C1180      H1189   1.082       .  S
C1180      C1181   1.401       .  A
C1181      C1182   1.404       .  A
C1182      H1190   1.084       .  S
C1191      C1192   1.402       .  A
C1191      C1196   1.404       .  A
C1192      H1205   1.083       .  S
C1192      C1193   1.398       .  A
C1193      H1206   1.078       .  S
C1193      C1194   1.414       .  A
C1194      C1200   1.435       .  A
C1194      C1195   1.424       .  A
C1195      C1197   1.400       .  A
C1195      C1196   1.411       .  A
C1196      H1207   1.084       .  S
C1197      H1208   1.084       .  S
C1197      C1198   1.392       .  A
C1198      H1209   1.084       .  S
C1198      C1199   1.400       .  A
C1199      C1200   1.422       .  A
C1199      C1204   1.408       .  A
C1200      C1201   1.417       .  A
C1201      H1210   1.078       .  S
C1201      C1202   1.400       .  A
C1202      H1211   1.083       .  S
C1202      C1203   1.398       .  A
C1203      C1204   1.404       .  A
C1204      H1212   1.085       .  S
C1213      C1214   1.395       .  A
C1213      C1218   1.403       .  A
C1214      H1227   1.084       .  S
C1214      C1215   1.398       .  A
C1215      H1228   1.077       .  S
C1215      C1216   1.418       .  A
C1216      C1222   1.433       .  A
C1216      C1217   1.422       .  A
C1217      C1219   1.402       .  A
C1217      C1218   1.411       .  A
C1218      H1229   1.084       .  S
C1219      H1230   1.084       .  S
C1219      C1220   1.395       .  A
C1220      H1231   1.084       .  S
C1220      C1221   1.401       .  A
C1221      C1222   1.423       .  A
C1221      C1226   1.415       .  A
C1222      C1223   1.409       .  A
C1223      H1232   1.077       .  S
C1223      C1224   1.392       .  A
C1224      H1233   1.079       .  S
C1224      C1225   1.406       .  A
C1225      C1226   1.408       .  A
C1226      H1234   1.084       .  S
C1235      C1236   1.402       .  A
C1235      C1240   1.404       .  A
C1236      H1249   1.082       .  S
C1236      C1237   1.400       .  A
C1237      H1250   1.077       .  S
C1237      C1238   1.415       .  A
C1238      C1244   1.436       .  A
C1238      C1239   1.423       .  A
C1239      C1241   1.400       .  A
C1239      C1240   1.410       .  A
C1240      H1251   1.084       .  S
C1241      H1252   1.084       .  S
C1241      C1242   1.392       .  A
C1242      H1253   1.084       .  S
C1242      C1243   1.400       .  A
C1243      C1244   1.423       .  A
C1243      C1248   1.410       .  A
C1244      C1245   1.416       .  A
C1245      H1254   1.077       .  S
C1245      C1246   1.400       .  A
C1246      H1255   1.083       .  S
C1246      C1247   1.403       .  A
C1247      C1248   1.401       .  A
C1248      H1256   1.085       .  S
C1257      C1258   1.403       .  A
C1257      C1262   1.405       .  A
C1258      H1271   1.083       .  S
C1258      C1259   1.404       .  A
C1259      H1272   1.078       .  S
C1259      C1260   1.418       .  A
C1260      C1266   1.434       .  A
C1260      C1261   1.420       .  A
C1261      C1263   1.400       .  A
C1261      C1262   1.401       .  A
C1262      H1273   1.082       .  S
C1263      H1274   1.084       .  S
C1263      C1264   1.388       .  A
C1264      H1275   1.084       .  S
C1264      C1265   1.398       .  A
C1265      C1266   1.425       .  A
C1265      C1270   1.406       .  A
C1266      C1267   1.416       .  A
C1267      H1276   1.078       .  S
C1267      C1268   1.401       .  A
C1268      H1277   1.083       .  S
C1268      C1269   1.400       .  A
C1269      C1270   1.396       .  A
C1270      H1278   1.085       .  S
C1279      C1280   1.396       .  A
C1279      C1284   1.393       .  A
C1280      H1293   1.084       .  S
C1280      C1281   1.389       .  A
C1281      H1294   1.077       .  S
C1281      C1282   1.414       .  A
C1282      C1288   1.423       .  A
C1282      C1283   1.424       .  A
C1283      C1285   1.398       .  A
C1283      C1284   1.399       .  A
C1284      H1295   1.085       .  S
C1285      H1296   1.084       .  S
C1285      C1286   1.387       .  A
C1286      H1297   1.084       .  S
C1286      C1287   1.399       .  A
C1287      C1288   1.422       .  A
C1287      C1292   1.398       .  A
C1288      C1289   1.415       .  A
C1289      H1298   1.077       .  S
C1289      C1290   1.391       .  A
C1290      H1299   1.083       .  S
C1290      C1291   1.396       .  A
C1291      C1292   1.398       .  A
C1292      H1300   1.085       .  S
C1301      C1302   1.394       .  A
C1301      C1306   1.395       .  A
C1302      H1315   1.084       .  S
C1302      C1303   1.389       .  A
C1303      H1316   1.076       .  S
C1303      C1304   1.415       .  A
C1304      C1310   1.424       .  A
C1304      C1305   1.423       .  A
C1305      C1307   1.399       .  A
C1305      C1306   1.402       .  A
C1306      H1317   1.083       .  S
C1307      H1318   1.084       .  S
C1307      C1308   1.390       .  A
C1308      H1319   1.084       .  S
C1308      C1309   1.400       .  A
C1309      C1310   1.423       .  A
C1309      C1314   1.404       .  A
C1310      C1311   1.414       .  A
C1311      H1320   1.076       .  S
C1311      C1312   1.390       .  A
C1312      H1321   1.084       .  S
C1312      C1313   1.396       .  A
C1313      C1314   1.400       .  A
C1314      H1322   1.084       .  S
C1323      C1324   1.397       .  A
C1323      C1328   1.400       .  A
C1324      H1337   1.083       .  S
C1324      C1325   1.391       .  A
C1325      H1338   1.076       .  S
C1325      C1326   1.414       .  A
C1326      C1332   1.424       .  A
C1326      C1327   1.422       .  A
C1327      C1329   1.400       .  A
C1327      C1328   1.402       .  A
C1328      H1339   1.084       .  S
C1329      H1340   1.084       .  S
C1329      C1330   1.389       .  A
C1330      H1341   1.084       .  S
C1330      C1331   1.399       .  A
C1331      C1332   1.424       .  A
C1331      C1336   1.401       .  A
C1332      C1333   1.414       .  A
C1333      H1342   1.076       .  S
C1333      C1334   1.389       .  A
C1334      H1343   1.084       .  S
C1334      C1335   1.395       .  A
C1335      C1336   1.395       .  A
C1336      H1344   1.084       .  S
C1345      C1346   1.399       .  A
C1345      C1350   1.398       .  A
C1346      H1359   1.082       .  S
C1346      C1347   1.391       .  A
C1347      H1360   1.078       .  S
C1347      C1348   1.412       .  A
C1348      C1354   1.422       .  A
C1348      C1349   1.422       .  A
C1349      C1351   1.399       .  A
C1349      C1350   1.402       .  A
C1350      H1361   1.085       .  S
C1351      H1362   1.084       .  S
C1351      C1352   1.389       .  A
C1352      H1363   1.084       .  S
C1352      C1353   1.399       .  A
C1353      C1354   1.421       .  A
C1353      C1358   1.398       .  A
C1354      C1355   1.416       .  A
C1355      H1364   1.077       .  S
C1355      C1356   1.392       .  A
C1356      H1365   1.083       .  S
C1356      C1357   1.394       .  A
C1357      C1358   1.398       .  A
C1358      H1366   1.085       .  S
C1367      C1368   1.394       .  A
C1367      C1372   1.395       .  A
C1368      H1381   1.084       .  S
C1368      C1369   1.389       .  A
C1369      H1382   1.076       .  S
C1369      C1370   1.415       .  A
C1370      C1376   1.424       .  A
C1370      C1371   1.423       .  A
C1371      C1373   1.399       .  A
C1371      C1372   1.402       .  A
C1372      H1383   1.084       .  S
C1373      H1384   1.084       .  S
C1373      C1374   1.390       .  A
C1374      H1385   1.084       .  S
C1374      C1375   1.400       .  A
C1375      C1376   1.423       .  A
C1375      C1380   1.404       .  A
C1376      C1377   1.413       .  A
C1377      H1386   1.076       .  S
C1377      C1378   1.390       .  A
C1378      H1387   1.084       .  S
C1378      C1379   1.397       .  A
C1379      C1380   1.399       .  A
C1380      H1388   1.084       .  S
C1389      C1390   1.395       .  A
C1389      C1394   1.393       .  A
C1390      H1403   1.084       .  S
C1390      C1391   1.388       .  A
C1391      H1404   1.077       .  S
C1391      C1392   1.414       .  A
C1392      C1398   1.422       .  A
C1392      C1393   1.423       .  A
C1393      C1395   1.398       .  A
C1393      C1394   1.399       .  A
C1394      H1405   1.083       .  S
C1395      H1406   1.084       .  S
C1395      C1396   1.387       .  A
C1396      H1407   1.084       .  S
C1396      C1397   1.399       .  A
C1397      C1398   1.422       .  A
C1397      C1402   1.398       .  A
C1398      C1399   1.414       .  A
C1399      H1408   1.077       .  S
C1399      C1400   1.390       .  A
C1400      H1409   1.083       .  S
C1400      C1401   1.396       .  A
C1401      C1402   1.398       .  A
C1402      H1410   1.085       .  S
C1411      C1412   1.398       .  A
C1411      C1416   1.400       .  A
C1412      H1425   1.084       .  S
C1412      C1413   1.392       .  A
C1413      H1426   1.076       .  S
C1413      C1414   1.413       .  A
C1414      C1420   1.425       .  A
C1414      C1415   1.423       .  A
C1415      C1417   1.399       .  A
C1415      C1416   1.404       .  A
C1416      H1427   1.083       .  S
C1417      H1428   1.084       .  S
C1417      C1418   1.389       .  A
C1418      H1429   1.084       .  S
C1418      C1419   1.399       .  A
C1419      C1420   1.423       .  A
C1419      C1424   1.401       .  A
C1420      C1421   1.416       .  A
C1421      H1430   1.076       .  S
C1421      C1422   1.392       .  A
C1422      H1431   1.084       .  S
C1422      C1423   1.395       .  A
C1423      C1424   1.395       .  A
C1424      H1432   1.083       .  S
C1433      C1434   1.398       .  A
C1433      C1438   1.399       .  A
C1434      H1447   1.084       .  S
C1434      C1435   1.390       .  A
C1435      H1448   1.075       .  S
C1435      C1436   1.413       .  A
C1436      C1442   1.424       .  A
C1436      C1437   1.423       .  A
C1437      C1439   1.399       .  A
C1437      C1438   1.403       .  A
C1438      H1449   1.083       .  S
C1439      H1450   1.084       .  S
C1439      C1440   1.389       .  A
C1440      H1451   1.084       .  S
C1440      C1441   1.399       .  A
C1441      C1442   1.422       .  A
C1441      C1446   1.399       .  A
C1442      C1443   1.416       .  A
C1443      H1452   1.075       .  S
C1443      C1444   1.392       .  A
C1444      H1453   1.083       .  S
C1444      C1445   1.392       .  A
C1445      C1446   1.397       .  A
C1446      H1454   1.085       .  S
