geometry optimzed in LAMMPS
_audit_creation_date              2020-11-30 
_audit_creation_method            'lammps2cif' 
_symmetry_space_group_name_H-M    'P1' 
_symmetry_Int_Tables_number       1 
_symmetry_cell_setting            triclinic 
loop_ 
_symmetry_equiv_pos_as_xyz 
  x,y,z 
_cell_length_a                    35.38677365 
_cell_length_b                    35.2642169687362 
_cell_length_c                    35.7078490889246 
_cell_angle_alpha                 89.60689680192624 
_cell_angle_beta                  89.52650428606673 
_cell_angle_gamma                 89.48747838913792 
loop_ 
_atom_site_label 
_atom_site_type_symbol 
_atom_site_fract_x 
_atom_site_fract_y 
_atom_site_fract_z 
_atom_site_charge 
N1          N  0.86801066  0.37659354  0.45003228    -0.02400
C2          C  0.83636129  0.38218041  0.05467202     0.00200
C3          C  0.82491407  0.35657734  0.08180848    -0.22700
C4          C  0.84978111  0.32684177  0.08073832    -0.22900
C5          C  0.87610332  0.33518659  0.05319840     0.00100
H6          H  0.79852484  0.35725078  0.09735440     0.13800
H7          H  0.84721239  0.30057361  0.09637087     0.13900
N8          N  0.87139694  0.36880419  0.24870797    -0.02400
C9          C  0.83468622  0.37552503  0.25899481     0.00200
C10         C  0.81979410  0.34453516  0.27752868    -0.22700
C11         C  0.84758157  0.31760753  0.27888619    -0.22900
C12         C  0.87881504  0.33271500  0.26099161     0.00100
H13         H  0.79079060  0.34096681  0.28667495     0.13800
H14         H  0.84453686  0.28896145  0.28950790     0.13900
N15         N  0.57434961  0.87399637  0.47878086    -0.02400
C16         C  0.56622579  0.83635455  0.47887681     0.00200
C17         C  0.59822472  0.81484386  0.47172941    -0.22700
C18         C  0.62725435  0.83969704  0.46692031    -0.22900
C19         C  0.61203806  0.87558400  0.47122908     0.00100
H20         H  0.60016367  0.78422188  0.47052279     0.13800
H21         H  0.65670503  0.83242903  0.46229750     0.13900
N22         N  0.57966167  0.88374566  0.27843678    -0.02400
C23         C  0.61257364  0.89467434  0.29450228     0.00200
C24         C  0.62111650  0.87202590  0.32493539    -0.22700
C25         C  0.59320098  0.84549518  0.32743634    -0.22900
C26         C  0.56849431  0.85247368  0.29827552     0.00100
H27         H  0.64686529  0.87234241  0.34109393     0.13800
H28         H  0.59371478  0.82062605  0.34537988     0.13900
O29         O  0.89141699  0.94810893  0.45240266    -0.77400
C30         C  0.98190377  0.97343540  0.37130562     0.83600
O31         O  0.00319270  0.88647284  0.49942225    -0.78600
O32         O  0.06503317  0.00416592  0.45706009    -0.80000
O33         O  0.94547053  0.06264145  0.49492400    -0.79800
O34         O  0.88634129  0.98922123  0.49892721    -0.78500
Zn35       Zn  0.94772284  0.94082527  0.44367863     1.55700
O36         O  0.99228008  0.06684561  0.45302129    -0.79900
Cd37       Cd  0.93290792  0.99153958  0.00987202     1.59700
Cd38       Cd  0.00874535  0.93744404  0.00506641     1.59600
O39         O  0.94637553  0.97961163  0.06491567    -0.79900
O40         O  0.97709719  0.97451836  0.47517452    -1.90400
Cd41       Cd  0.00816342  0.01032873  0.44440834     1.59900
O42         O  0.99993271  0.94570627  0.06178897    -0.79800
O43         O  0.00158718  0.99805741  0.38819033    -0.78500
C44         C  0.98064495  0.86837352  0.47853812     0.84100
C45         C  0.87121792  0.96688884  0.47566437     0.83700
O46         O  0.96052693  0.95031831  0.38895466    -0.77400
C47         C  0.96661909  0.08229218  0.47328181     0.84500
O48         O  0.95851456  0.88561394  0.45603475    -0.77500
C49         C  0.97408796  0.96259603  0.08051852     0.84700
C50         C  0.08466638  0.98166032  0.47737776     0.85000
O51         O  0.06926804  0.95557988  0.49701095    -0.79900
O52         O  0.96955489  0.87797387  0.24922905    -0.77400
C53         C  0.98363317  0.97197091  0.33017563     0.83600
O54         O  0.89069547  0.98626182  0.21026636    -0.78600
O55         O  0.99841437  0.06169970  0.24274514    -0.80000
O56         O  0.07428468  0.95531283  0.19981619    -0.79800
O57         O  0.01531066  0.88102952  0.20614389    -0.78500
Zn58       Zn  0.95493543  0.93351713  0.25911789     1.55700
O59         O  0.07032972  0.99925763  0.24423651    -0.79900
Cd60       Cd  0.01837985  0.93840289  0.19346348     1.59700
Cd61       Cd  0.94615665  0.99749129  0.19505782     1.59600
O62         O  0.00339720  0.94536297  0.13765688    -0.79900
O63         O  0.98294571  0.96816975  0.22640921    -1.90400
Cd64       Cd  0.01300337  0.00551183  0.25575507     1.59900
O65         O  0.95286798  0.98379295  0.13946465    -0.79800
O66         O  0.00321857  0.99659240  0.31248329    -0.78500
C67         C  0.87676517  0.96220650  0.23315034     0.84100
C68         C  0.99416309  0.86184818  0.22815060     0.83700
O69         O  0.96513214  0.94641302  0.31330193    -0.77400
C70         C  0.08974967  0.97951605  0.22110643     0.84500
O71         O  0.89820689  0.94028195  0.25228721    -0.77500
C72         C  0.97681522  0.96366341  0.12145210     0.84700
C73         C  0.97449381  0.07625197  0.22009748     0.85000
O74         O  0.95375921  0.05536291  0.19998210    -0.79900
N75         N  0.07029336  0.57538996  0.44891259    -0.02400
C76         C  0.06480408  0.61364891  0.44960711     0.00200
C77         C  0.09778883  0.63241783  0.44088297    -0.22700
C78         C  0.12486241  0.60519015  0.43494472    -0.22900
C79         C  0.10763836  0.57053931  0.44029440     0.00100
H80         H  0.10194321  0.66280908  0.44036814     0.13800
H81         H  0.15459138  0.61012894  0.42973896     0.13900
N82         N  0.06869155  0.56385761  0.18488421    -0.02400
C83         C  0.10370132  0.55751153  0.16989632     0.00200
C84         C  0.11476609  0.58808567  0.14818000    -0.22700
C85         C  0.08640561  0.61454837  0.15052945    -0.22900
C86         C  0.05868105  0.59944581  0.17348010     0.00100
H87         H  0.14220944  0.59232105  0.13526939     0.13800
H88         H  0.08771233  0.64339522  0.14005991     0.13900
N89         N  0.37589708  0.08040690  0.46652892    -0.02400
C90         C  0.33853828  0.07697689  0.45809510     0.00200
C91         C  0.32139912  0.11230625  0.45595928    -0.22700
C92         C  0.34856310  0.13841805  0.46315022    -0.22900
C93         C  0.38151926  0.11839740  0.46972783     0.00100
H94         H  0.29179955  0.11831766  0.45101143     0.13800
H95         H  0.34463697  0.16886903  0.46432464     0.13900
N96         N  0.38270789  0.07396176  0.19464252    -0.02400
C97         C  0.35010767  0.06489177  0.17693708     0.00200
C98         C  0.33854086  0.09435938  0.15389381    -0.22700
C99         C  0.36454577  0.12254603  0.15737292    -0.22900
C100        C  0.39135179  0.10949172  0.18228837     0.00100
H101        H  0.31226638  0.09640721  0.13866938     0.13800
H102        H  0.36264447  0.15070037  0.14522983     0.13900
O103        O  0.44732069  0.45809352  0.40108342    -0.77400
C104        C  0.46522840  0.37377253  0.48747803     0.83600
O105        O  0.37809143  0.50339463  0.50902310    -0.78600
O106        O  0.48536403  0.45169244  0.07765595    -0.80000
O107        O  0.55862041  0.50179063  0.46252772    -0.79800
O108        O  0.48992578  0.50437142  0.39927849    -0.78500
Zn109      Zn  0.43573247  0.44926313  0.45564525     1.55700
O110        O  0.55612961  0.44726687  0.01815016    -0.79900
Cd111      Cd  0.50118484  0.51327292  0.45521263     1.59700
Cd112      Cd  0.43865665  0.50991560  0.01777471     1.59600
O113        O  0.49045940  0.56976970  0.46656633    -0.79900
O114        O  0.46815622  0.48006923  0.48693065    -1.90400
Cd115      Cd  0.49839845  0.43884031  0.02265509     1.59900
O116        O  0.44530919  0.57045658  0.51021708    -0.79800
O117        O  0.48917146  0.38925166  0.50901281    -0.78500
C118        C  0.36120992  0.48259459  0.48541154     0.84100
C119        C  0.46850398  0.48087932  0.38306150     0.83700
O120        O  0.44405302  0.39391757  0.46650291    -0.77400
C121        C  0.57670079  0.47721350  0.48188444     0.84500
O122        O  0.37995305  0.46083535  0.46360956    -0.77500
C123        C  0.46793357  0.58793284  0.48818935     0.84700
C124        C  0.46973461  0.48036595  0.09306970     0.85000
O125        O  0.45258875  0.50615001  0.07437460    -0.79900
O126        O  0.38330274  0.46400743  0.21372471    -0.77400
C127        C  0.47067766  0.48260683  0.13391333     0.83600
O128        O  0.48767055  0.38722508  0.26014531    -0.78600
O129        O  0.56162720  0.49692657  0.21591424    -0.80000
O130        O  0.45377722  0.57252909  0.26246793    -0.79800
O131        O  0.38183542  0.51034698  0.25564281    -0.78500
Zn132      Zn  0.43819445  0.45004590  0.20644282     1.55700
O133        O  0.50175677  0.57013465  0.22164457    -0.79900
Cd134      Cd  0.43863864  0.51574818  0.26891134     1.59700
Cd135      Cd  0.50079607  0.44449491  0.26987703     1.59600
O136        O  0.44686546  0.50329544  0.32494163    -0.79900
O137        O  0.47066343  0.48055578  0.23769214    -1.90400
Cd138      Cd  0.50548317  0.51290631  0.20647891     1.59900
O139        O  0.48995841  0.45636720  0.32564250    -0.79800
O140        O  0.49242305  0.50627514  0.14976913    -0.78500
C141        C  0.46430920  0.37261263  0.23740896     0.84100
C142        C  0.36505606  0.48842525  0.23299444     0.83700
O143        O  0.45024599  0.45953274  0.15240043    -0.77400
C144        C  0.48007924  0.58863138  0.24384583     0.84500
O145        O  0.44433504  0.39369906  0.21605674    -0.77500
C146        C  0.46832210  0.48003257  0.34231410     0.84700
C147        C  0.57769104  0.47373059  0.23848262     0.85000
O148        O  0.55835847  0.45252312  0.26044476    -0.79900
C149        C  0.42169442  0.18708838  0.24553878    -0.01000
C150        C  0.44445778  0.20867323  0.22067754     0.07600
C151        C  0.45800197  0.19117374  0.18788247    -0.06900
C152        C  0.44470026  0.15564141  0.17690775     0.05100
C153        C  0.41826017  0.13617459  0.19950098    -0.14200
C154        C  0.40891578  0.15108135  0.23480077    -0.07500
C155        C  0.45023246  0.25057667  0.22535712     0.06000
C156        C  0.46669186  0.26500742  0.25797853    -0.08600
C157        C  0.47143238  0.30434247  0.26293676     0.01000
C158        C  0.46019172  0.33033836  0.23453626     0.00900
C159        C  0.44376935  0.31562431  0.20199752    -0.12200
C160        C  0.43854559  0.27660731  0.19731060     0.01300
C161        C  0.48647052  0.31705748  0.29807907     0.40600
C162        C  0.42001562  0.26421168  0.16365412     0.37300
C163        C  0.40843939  0.20233193  0.28072745     0.37000
C164        C  0.45630385  0.14120054  0.14085253     0.37800
N165        N  0.49830003  0.32712510  0.32641285    -0.43000
N166        N  0.40532586  0.25424373  0.13664983    -0.43500
N167        N  0.46599571  0.13002382  0.11190530    -0.40800
N168        N  0.39803604  0.21427417  0.30914550    -0.42300
H169        H  0.38848155  0.13642089  0.25234315     0.13900
H170        H  0.47670871  0.20671407  0.16922239     0.10400
H171        H  0.47572030  0.24548801  0.27979646     0.11400
H172        H  0.43472772  0.33474610  0.17983576     0.17200
C173        C  0.48317689  0.26932741  0.51047451    -0.01000
C174        C  0.45819359  0.25088843  0.48626020     0.07600
C175        C  0.43495130  0.27286601  0.46288024    -0.06900
C176        C  0.43626431  0.31251650  0.46298165     0.05100
C177        C  0.46201864  0.33143126  0.48666110    -0.14200
C178        C  0.48523793  0.30912101  0.51021398    -0.07500
C179        C  0.45268864  0.20903056  0.48655238     0.06000
C180        C  0.43514260  0.19229301  0.51783211    -0.08600
C181        C  0.41719464  0.15719399  0.51474354     0.01000
C182        C  0.41636223  0.13859801  0.47987340     0.00900
C183        C  0.43885673  0.15250333  0.45038827    -0.12200
C184        C  0.45702437  0.18756939  0.45350711     0.01300
C185        C  0.40023501  0.13788430  0.04175541     0.40600
C186        C  0.47723106  0.20260262  0.42147649     0.37300
C187        C  0.50696397  0.24799841  0.53574771     0.37000
C188        C  0.40999470  0.33247910  0.43893891     0.37800
N189        N  0.38457090  0.12651206  0.06802500    -0.43000
N190        N  0.49356164  0.21476631  0.39594464    -0.43500
N191        N  0.40598158  0.34515100  0.90354615    -0.40800
N192        N  0.52592534  0.23090319  0.55614360    -0.42300
H193        H  0.50493788  0.32270688  0.52881965     0.13900
H194        H  0.41485210  0.25882497  0.44497121     0.10400
H195        H  0.43843679  0.20176148  0.03648195     0.11400
H196        H  0.43838421  0.13844848  0.42347085     0.17200
C197        C  0.26432976  0.46140981  0.20977866    -0.01000
C198        C  0.24491761  0.49629532  0.21324287     0.07600
C199        C  0.26485340  0.52834953  0.22481339    -0.06900
C200        C  0.30369498  0.52642133  0.23197843     0.05100
C201        C  0.32341990  0.49157368  0.22806111    -0.14200
C202        C  0.30318987  0.45932012  0.21711271    -0.07500
C203        C  0.20438651  0.50120405  0.20318328     0.06000
C204        C  0.17877548  0.51374197  0.23076514    -0.08600
C205        C  0.14290776  0.52776903  0.22109928     0.01000
C206        C  0.13216691  0.52932730  0.18308324     0.00900
C207        C  0.15637351  0.51313101  0.15604323    -0.12200
C208        C  0.19232988  0.49944599  0.16564893     0.01300
C209        C  0.11988872  0.54455765  0.25024126     0.40600
C210        C  0.21763237  0.48759876  0.13591398     0.37300
C211        C  0.24500944  0.42747495  0.19865795     0.37000
C212        C  0.32285287  0.56119842  0.24084889     0.37800
N213        N  0.10178602  0.55800757  0.27388063    -0.43000
N214        N  0.23784513  0.47809043  0.11205099    -0.43500
N215        N  0.33827074  0.58907762  0.24773355    -0.40800
N216        N  0.22955521  0.40031833  0.18952800    -0.42300
H217        H  0.31782129  0.43235475  0.21404220     0.13900
H218        H  0.25016178  0.55538682  0.22703970     0.10400
H219        H  0.18789663  0.51512351  0.25964657     0.11400
H220        H  0.14864103  0.51462020  0.12674019     0.17200
C221        C  0.26092603  0.45769767  0.45595103    -0.01000
C222        C  0.23975114  0.48895516  0.46923203     0.07600
C223        C  0.25802558  0.51635616  0.49068328    -0.06900
C224        C  0.29692583  0.51427397  0.49748276     0.05100
C225        C  0.31894603  0.48418275  0.48232416    -0.14200
C226        C  0.30011345  0.45571560  0.46222925    -0.07500
C227        C  0.19946598  0.49634290  0.45901172     0.06000
C228        C  0.17270812  0.50198155  0.48783903    -0.08600
C229        C  0.13851552  0.52121709  0.48095344     0.01000
C230        C  0.13097902  0.53567168  0.44485873     0.00900
C231        C  0.15556230  0.52597010  0.41529771    -0.12200
C232        C  0.18942318  0.50622278  0.42195332     0.01300
C233        C  0.12276783  0.53136690  0.03432973     0.40600
C234        C  0.21502649  0.50023994  0.39080893     0.37300
C235        C  0.24300215  0.42728735  0.43611212     0.37000
C236        C  0.31326301  0.54450462  0.51887815     0.37800
N237        N  0.10880042  0.54523496  0.06028839    -0.43000
N238        N  0.23528404  0.49514634  0.36569554    -0.43500
N239        N  0.32612863  0.56879271  0.53612761    -0.40800
N240        N  0.22855801  0.40291425  0.42026548    -0.42300
H241        H  0.31604479  0.43188270  0.45106044     0.13900
H242        H  0.24191878  0.54044040  0.50114519     0.10400
H243        H  0.18738015  0.49382400  0.03596468     0.11400
H244        H  0.15022131  0.53729612  0.38750381     0.17200
C245        C  0.27406225  0.01946810  0.23430558    -0.01000
C246        C  0.25189447  0.00318410  0.20594517     0.07600
C247        C  0.26759344  0.99931548  0.16989485    -0.06900
C248        C  0.30298342  0.01474119  0.16105552     0.05100
C249        C  0.32315071  0.03486285  0.18838986    -0.14200
C250        C  0.30935510  0.03513530  0.22535073    -0.07500
C251        C  0.21078805  0.99541986  0.21177718     0.06000
C252        C  0.18696202  0.02563681  0.22231157    -0.08600
C253        C  0.14780109  0.02105096  0.22563704     0.01000
C254        C  0.13139716  0.98536774  0.21849753     0.00900
C255        C  0.15525689  0.95510782  0.20770623    -0.12200
C256        C  0.19455644  0.95987191  0.20427238     0.01300
C257        C  0.12505977  0.05415802  0.23421477     0.40600
C258        C  0.21770374  0.92787631  0.19325147     0.37300
C259        C  0.26014825  0.02249123  0.27230944     0.37000
C260        C  0.31687895  0.01212216  0.12300882     0.37800
N261        N  0.10673880  0.08065288  0.24089187    -0.43000
N262        N  0.23637707  0.90235488  0.18427419    -0.43500
N263        N  0.32815488  0.01004842  0.09257226    -0.40800
N264        N  0.24892722  0.02495255  0.30273719    -0.42300
H265        H  0.32421572  0.05093805  0.24648700     0.13900
H266        H  0.25105221  0.98666526  0.14789135     0.10400
H267        H  0.19897353  0.05339694  0.22692084     0.11400
H268        H  0.14321274  0.92759381  0.20201407     0.17200
C269        C  0.96739244  0.75751058  0.22877278    -0.01000
C270        C  0.00264338  0.73942846  0.22289858     0.07600
C271        C  0.03525902  0.76173228  0.22055120    -0.06900
C272        C  0.03327854  0.80131086  0.22323134     0.05100
C273        C  0.99790916  0.81968732  0.22836579    -0.14200
C274        C  0.96531978  0.79725508  0.23181773    -0.07500
C275        C  0.00680196  0.69769386  0.21697621     0.06000
C276        C  0.99214952  0.68154701  0.18431906    -0.08600
C277        C  0.00453291  0.64564127  0.17226499     0.01000
C278        C  0.03204880  0.62550014  0.19286824     0.00900
C279        C  0.04324698  0.63972138  0.22765853    -0.12200
C280        C  0.03071479  0.67541036  0.23990154     0.01300
C281        C  0.99112153  0.63114590  0.13712508     0.40600
C282        C  0.04477489  0.68976896  0.27486311     0.37300
C283        C  0.93308005  0.73588395  0.23181453     0.37000
C284        C  0.06821985  0.82214186  0.22131153     0.37800
N285        N  0.98034814  0.61916216  0.10911537    -0.43000
N286        N  0.05594112  0.70134253  0.30289084    -0.43500
N287        N  0.09636779  0.83857237  0.21982532    -0.40800
N288        N  0.90553956  0.71855826  0.23423335    -0.42300
H289        H  0.93798914  0.81086281  0.23577073     0.13900
H290        H  0.06249468  0.74809294  0.21594147     0.10400
H291        H  0.97343101  0.69819377  0.16667268     0.11400
H292        H  0.06478154  0.62473592  0.24349653     0.17200
C293        C  0.19037128  0.95883517  0.47849571    -0.01000
C294        C  0.20603741  0.99511029  0.47291694     0.07600
C295        C  0.18183098  0.02680001  0.47191372    -0.06900
C296        C  0.14264418  0.02296924  0.47467086     0.05100
C297        C  0.12647294  0.98657125  0.47808285    -0.14200
C298        C  0.15080106  0.95480679  0.48108882    -0.07500
C299        C  0.24702429  0.00198321  0.46582851     0.06000
C300        C  0.25711773  0.01718036  0.43082324    -0.08600
C301        C  0.29061861  0.03741536  0.42606648     0.01000
C302        C  0.31534481  0.04212928  0.45655909     0.00900
C303        C  0.30786276  0.02231862  0.49008403    -0.12200
C304        C  0.27372386  0.00248057  0.49500258     0.01300
C305        C  0.29636848  0.05749427  0.39109740     0.40600
C306        C  0.25628956  0.98831179  0.02767637     0.37300
C307        C  0.20730037  0.92837687  0.97244472     0.37000
C308        C  0.11980178  0.05713918  0.47489210     0.37800
N309        N  0.30080702  0.07388682  0.36324096    -0.43000
N310        N  0.24844159  0.97561100  0.05665330    -0.43500
N311        N  0.10144664  0.08446616  0.47524176    -0.40800
N312        N  0.22674716  0.90182374  0.97208255    -0.42300
H313        H  0.13238366  0.92852674  0.97821251     0.13900
H314        H  0.19375466  0.05488665  0.46851798     0.10400
H315        H  0.23683713  0.01671235  0.40820227     0.11400
H316        H  0.32644301  0.02597666  0.51374858     0.17200
C317        C  0.01919609  0.76875319  0.48871429    -0.01000
C318        C  0.98799775  0.74609053  0.47910660     0.07600
C319        C  0.95327773  0.76387403  0.47121832    -0.06900
C320        C  0.94973178  0.80361340  0.47144377     0.05100
C321        C  0.98140454  0.82623251  0.47993238    -0.14200
C322        C  0.01553093  0.80818025  0.48938018    -0.07500
C323        C  0.99291811  0.70437453  0.47428018     0.06000
C324        C  0.00755548  0.68294222  0.50416956    -0.08600
C325        C  0.02708359  0.64893713  0.49751198     0.01000
C326        C  0.03043520  0.63500327  0.46062656     0.00900
C327        C  0.01020436  0.65316724  0.43193091    -0.12200
C328        C  0.99157827  0.68781099  0.43841232     0.01300
C329        C  0.04789566  0.63196697  0.52804999     0.40600
C330        C  0.97528323  0.70778932  0.40693689     0.37300
C331        C  0.05606746  0.75248969  0.49601975     0.37000
C332        C  0.91319777  0.82022382  0.46348930     0.37800
N333        N  0.06396559  0.61830427  0.05951702    -0.43000
N334        N  0.96203439  0.72376714  0.38178190    -0.43500
N335        N  0.88558147  0.82476961  0.95368983    -0.40800
N336        N  0.08559136  0.73950131  0.50191496    -0.42300
H337        H  0.04008511  0.82501535  0.49595519     0.13900
H338        H  0.92911582  0.74668618  0.46420269     0.10400
H339        H  0.00791233  0.69514000  0.53197894     0.11400
H340        H  0.01290034  0.64278813  0.40349401     0.17200
C341        C  0.43722270  0.00494808  0.25501822    -0.01000
C342        C  0.46560653  0.99199951  0.22973503     0.07600
C343        C  0.46464994  0.00517486  0.19254779    -0.06900
C344        C  0.43706788  0.03139905  0.18082510     0.05100
C345        C  0.41049650  0.04626658  0.20666671    -0.14200
C346        C  0.41058000  0.03250568  0.24358363    -0.07500
C347        C  0.49634684  0.96479054  0.24134420     0.06000
C348        C  0.50244319  0.93093555  0.22126788    -0.08600
C349        C  0.53067377  0.90460336  0.23194949     0.01000
C350        C  0.55287768  0.91140822  0.26377867     0.00900
C351        C  0.54745148  0.94581058  0.28299421    -0.12200
C352        C  0.52049696  0.97268445  0.27154749     0.01300
C353        C  0.53722907  0.87164424  0.20909870     0.40600
C354        C  0.51926469  0.00876659  0.29045137     0.37300
C355        C  0.43385580  0.98910236  0.29228287     0.37000
C356        C  0.43532846  0.04159962  0.14167741     0.37800
N357        N  0.54252655  0.84546668  0.19034040    -0.43000
N358        N  0.51839544  0.03772764  0.30549929    -0.43500
N359        N  0.43329915  0.04943426  0.11023222    -0.40800
N360        N  0.43130821  0.97613464  0.32204912    -0.42300
H361        H  0.38956993  0.04290121  0.26330831     0.13900
H362        H  0.48545506  0.99483949  0.17252299     0.10400
H363        H  0.48503022  0.92500330  0.19718807     0.11400
H364        H  0.56433484  0.95170072  0.30740382     0.17200
C365        C  0.49579117  0.77511591  0.28574298    -0.01000
C366        C  0.51769105  0.74704412  0.26720434     0.07600
C367        C  0.55373703  0.75679517  0.25383866    -0.06900
C368        C  0.56932034  0.79227294  0.26123129     0.05100
C369        C  0.54855204  0.81956155  0.28189073    -0.14200
C370        C  0.51149292  0.81091336  0.29328863    -0.07500
C371        C  0.50560887  0.70652613  0.26370531     0.06000
C372        C  0.47388162  0.69707953  0.24224974    -0.08600
C373        C  0.46466388  0.65886848  0.23563409     0.01000
C374        C  0.48755501  0.62942103  0.25031119     0.00900
C375        C  0.51860021  0.63882622  0.27237867    -0.12200
C376        C  0.52756677  0.67674308  0.27941386     0.01300
C377        C  0.43255417  0.65049529  0.21256876     0.40600
C378        C  0.55945442  0.68431655  0.30314689     0.37300
C379        C  0.45794658  0.76731775  0.29879569     0.37000
C380        C  0.60791072  0.79891448  0.24962703     0.37800
N381        N  0.40689891  0.64374951  0.19393956    -0.43000
N382        N  0.58504839  0.69030374  0.32211928    -0.43500
N383        N  0.63893292  0.80389659  0.24050432    -0.40800
N384        N  0.42743906  0.76129474  0.30898024    -0.42300
H385        H  0.49548068  0.83143559  0.30956904     0.13900
H386        H  0.57059097  0.73578200  0.23901548     0.10400
H387        H  0.45692818  0.71953507  0.22980263     0.11400
H388        H  0.53594302  0.61633371  0.28429048     0.17200
C389        C  0.78186971  0.93567846  0.27594296    -0.01000
C390        C  0.75571633  0.95147412  0.25050246     0.07600
C391        C  0.76932689  0.97179493  0.21936513    -0.06900
C392        C  0.80837093  0.97618519  0.21310909     0.05100
C393        C  0.83479972  0.95969522  0.23834367    -0.14200
C394        C  0.82073801  0.93984254  0.26974375    -0.07500
C395        C  0.71436760  0.94474753  0.25529621     0.06000
C396        C  0.69511001  0.96097133  0.28585597    -0.08600
C397        C  0.65907872  0.94826347  0.29651794     0.01000
C398        C  0.64178369  0.91887537  0.27647051     0.00900
C399        C  0.65917735  0.90581156  0.24343691    -0.12200
C400        C  0.69530710  0.91839723  0.23281854     0.01300
C401        C  0.64084879  0.96463821  0.32896964     0.40600
C402        C  0.71367961  0.90144368  0.20071178     0.37300
C403        C  0.76953597  0.91379015  0.30804571     0.37000
C404        C  0.82012330  0.99686906  0.18002280     0.37800
N405        N  0.62595257  0.97796931  0.35474359    -0.43000
N406        N  0.72859868  0.88800423  0.17500618    -0.43500
N407        N  0.82941367  0.01348680  0.15348669    -0.40800
N408        N  0.75974205  0.89616594  0.33373887    -0.42300
H409        H  0.84017765  0.92719304  0.28965077     0.13900
H410        H  0.74934256  0.98384379  0.19962563     0.10400
H411        H  0.70917589  0.98202061  0.30263419     0.11400
H412        H  0.64609724  0.88326041  0.22779610     0.17200
C413        C  0.52086785  0.96123013  0.44826856    -0.01000
C414        C  0.49332301  0.96522919  0.47702711     0.07600
C415        C  0.49455195  0.93975189  0.50752295    -0.06900
C416        C  0.52206665  0.91083807  0.50950728     0.05100
C417        C  0.54794634  0.90555983  0.47969756    -0.14200
C418        C  0.54729539  0.93133889  0.44958395    -0.07500
C419        C  0.46267980  0.99500406  0.47529749     0.06000
C420        C  0.44042469  0.99803997  0.44294189    -0.08600
C421        C  0.41213059  0.02596043  0.43957026     0.01000
C422        C  0.40420506  0.05069386  0.46959191     0.00900
C423        C  0.42602987  0.04753724  0.50213763    -0.12200
C424        C  0.45083309  0.01228299  0.99303110     0.01300
C425        C  0.39374512  0.03035122  0.40392379     0.40600
C426        C  0.47313432  0.00673785  0.02631991     0.37300
C427        C  0.52335566  0.98790951  0.41751287     0.37000
C428        C  0.51686504  0.87222096  0.00483138     0.37800
N429        N  0.37993380  0.03365441  0.37481870    -0.43000
N430        N  0.49113609  0.00233926  0.05293750    -0.43500
N431        N  0.51620552  0.84915331  0.02803317    -0.40800
N432        N  0.52551791  0.00929129  0.39287778    -0.42300
H433        H  0.56738080  0.92782773  0.42676281     0.13900
H434        H  0.46932009  0.93007132  0.00332120     0.10400
H435        H  0.44560441  0.97886813  0.41980999     0.11400
H436        H  0.41502536  0.05450982  0.01941959     0.17200
C437        C  0.50353874  0.76461465  0.52050207    -0.01000
C438        C  0.48554473  0.75170194  0.48793000     0.07600
C439        C  0.48497992  0.77535050  0.45599621    -0.06900
C440        C  0.50695522  0.80831428  0.45443856     0.05100
C441        C  0.52944977  0.81792898  0.48524420    -0.14200
C442        C  0.52555654  0.79729611  0.51876000    -0.07500
C443        C  0.47643692  0.71069680  0.48418507     0.06000
C444        C  0.44913680  0.69386833  0.50754316    -0.08600
C445        C  0.44517866  0.65421139  0.50930546     0.01000
C446        C  0.46883197  0.63045132  0.48703763     0.00900
C447        C  0.49505271  0.64786253  0.46266232    -0.12200
C448        C  0.49909757  0.68721287  0.46117085     0.01300
C449        C  0.41732893  0.63915600  0.53500332     0.40600
C450        C  0.50858986  0.68831197  0.89739684     0.37300
C451        C  0.53949023  0.73252887  0.00929019     0.37000
C452        C  0.51033880  0.82879196  0.41942257     0.37800
N453        N  0.39497923  0.62741586  0.55578445    -0.43000
N454        N  0.52272814  0.69839524  0.86977732    -0.43500
N455        N  0.51336878  0.84536494  0.39148820    -0.40800
N456        N  0.55264989  0.71450572  0.03312943    -0.42300
H457        H  0.56510275  0.79814611  0.98460079     0.13900
H458        H  0.47083602  0.76586325  0.43095409     0.10400
H459        H  0.43182486  0.71175637  0.52550220     0.11400
H460        H  0.49505703  0.61714134  0.91546210     0.17200
C461        C  0.68779590  0.94145128  0.44223206    -0.01000
C462        C  0.70887225  0.94207845  0.47558910     0.07600
C463        C  0.69171447  0.93048005  0.50924280    -0.06900
C464        C  0.65597317  0.91372992  0.50914769     0.05100
C465        C  0.63701307  0.90852894  0.47496497    -0.14200
C466        C  0.65220860  0.92434012  0.44203951    -0.07500
C467        C  0.75025273  0.94908281  0.47500359     0.06000
C468        C  0.76496680  0.97937946  0.49520157    -0.08600
C469        C  0.80402539  0.98586743  0.49607084     0.01000
C470        C  0.82931529  0.96182084  0.47593374     0.00900
C471        C  0.81420874  0.93112135  0.45619151    -0.12200
C472        C  0.77532761  0.92430147  0.45605801     0.01300
C473        C  0.80464429  0.99272617  0.01790938     0.40600
C474        C  0.76194800  0.89064722  0.43766173     0.37300
C475        C  0.70368041  0.95546231  0.40750229     0.37000
C476        C  0.64163770  0.89732075  0.54356748     0.37800
N477        N  0.81114908  0.01420623  0.04128933    -0.43000
N478        N  0.75108409  0.86367280  0.42310215    -0.43500
N479        N  0.60789364  0.86724816  0.02517511    -0.40800
N480        N  0.71702033  0.96678046  0.37998177    -0.42300
H481        H  0.63812599  0.91991353  0.41559013     0.13900
H482        H  0.70761559  0.93132935  0.53505074     0.10400
H483        H  0.73593032  0.97439323  0.99770738     0.11400
H484        H  0.83287008  0.91166523  0.44141954     0.17200
C485        C  0.95808311  0.42901753  0.25913961    -0.01000
C486        C  0.95576572  0.45359377  0.22788412     0.07600
C487        C  0.92544095  0.44955515  0.20312436    -0.06900
C488        C  0.89755373  0.42195590  0.20910767     0.05100
C489        C  0.89969414  0.39734430  0.24048981    -0.14200
C490        C  0.93022424  0.40141975  0.26519564    -0.07500
C491        C  0.98593466  0.48176065  0.21874181     0.06000
C492        C  0.00762492  0.47646214  0.18615928    -0.08600
C493        C  0.03536649  0.50254068  0.17527603     0.01000
C494        C  0.04236270  0.53495266  0.19736265     0.00900
C495        C  0.02054362  0.54027319  0.23002650    -0.12200
C496        C  0.99256339  0.51413460  0.24080339     0.01300
C497        C  0.05462626  0.49612831  0.14011486     0.40600
C498        C  0.97007080  0.52192616  0.27379379     0.37300
C499        C  0.98943211  0.43079132  0.28467672     0.37000
C500        C  0.86849458  0.41863165  0.18134832     0.37800
N501        N  0.06971503  0.49037000  0.11183400    -0.43000
N502        N  0.95209010  0.52830823  0.30026149    -0.43500
N503        N  0.84594109  0.41671125  0.15817149    -0.40800
N504        N  0.01460927  0.43230645  0.30507941    -0.42300
H505        H  0.93221475  0.38289895  0.28947122     0.13900
H506        H  0.92383105  0.46786140  0.17863352     0.10400
H507        H  0.00241098  0.45198537  0.16875458     0.11400
H508        H  0.02508047  0.56505678  0.24702859     0.17200
C509        C  0.94318648  0.24923496  0.27121429    -0.01000
C510        C  0.94825858  0.23812801  0.23356674     0.07600
C511        C  0.93764958  0.26355363  0.20497480    -0.06900
C512        C  0.91943108  0.29812724  0.21334038     0.05100
C513        C  0.91143297  0.30769371  0.25097165    -0.14200
C514        C  0.92546667  0.28388250  0.27947812    -0.07500
C515        C  0.95864113  0.19816318  0.22403450     0.06000
C516        C  0.93130574  0.17543674  0.20728403    -0.08600
C517        C  0.93659964  0.13615488  0.20384100     0.01000
C518        C  0.96980860  0.11849256  0.21806154     0.00900
C519        C  0.99831238  0.14187548  0.23239134    -0.12200
C520        C  0.99317781  0.18135516  0.23490784     0.01300
C521        C  0.90647461  0.11486222  0.18711866     0.40600
C522        C  0.02356247  0.20421966  0.24882566     0.37300
C523        C  0.95180121  0.22374358  0.30189604     0.37000
C524        C  0.90581866  0.32100955  0.18262607     0.37800
N525        N  0.88241919  0.09782725  0.17355598    -0.43000
N526        N  0.04781310  0.22283518  0.25976554    -0.43500
N527        N  0.89531020  0.33893801  0.15749133    -0.40800
N528        N  0.95863623  0.20323959  0.32641581    -0.42300
H529        H  0.91884041  0.29042793  0.30843568     0.13900
H530        H  0.94138828  0.25524315  0.17597972     0.10400
H531        H  0.90486185  0.18825603  0.19831675     0.11400
H532        H  0.02453547  0.12929015  0.24218414     0.17200
C533        C  0.76807530  0.45828343  0.26429811    -0.01000
C534        C  0.73964675  0.44595887  0.23973776     0.07600
C535        C  0.74777231  0.41610932  0.21521448    -0.06900
C536        C  0.78172430  0.39573382  0.21783070     0.05100
C537        C  0.80875698  0.40551869  0.24500168    -0.14200
C538        C  0.80240187  0.43795503  0.26681142    -0.07500
C539        C  0.69958312  0.45913396  0.24252038     0.06000
C540        C  0.68321140  0.47866036  0.21230692    -0.08600
C541        C  0.64398652  0.48523110  0.21086935     0.01000
C542        C  0.61999582  0.47104898  0.23972369     0.00900
C543        C  0.63692190  0.45280477  0.27062233    -0.12200
C544        C  0.67609961  0.44694588  0.27229556     0.01300
C545        C  0.62941428  0.50552924  0.17878230     0.40600
C546        C  0.69120631  0.42644341  0.30403968     0.37300
C547        C  0.76183369  0.49043997  0.28838701     0.37000
C548        C  0.78651686  0.36228391  0.19502424     0.37800
N549        N  0.61787121  0.52204779  0.15313482    -0.43000
N550        N  0.70298090  0.41002787  0.32963060    -0.43500
N551        N  0.79042216  0.33544653  0.17687951    -0.40800
N552        N  0.75700402  0.51638473  0.30756481    -0.42300
H553        H  0.82272200  0.44540533  0.28804608     0.13900
H554        H  0.72619950  0.40665866  0.19606558     0.10400
H555        H  0.70108309  0.48784078  0.18919866     0.11400
H556        H  0.61943483  0.44233015  0.29346668     0.17200
C557        C  0.98556378  0.52063915  0.48323641    -0.01000
C558        C  0.98325772  0.49150258  0.45638180     0.07600
C559        C  0.00953370  0.49122439  0.42664871    -0.06900
C560        C  0.03767643  0.51881145  0.42351032     0.05100
C561        C  0.04156740  0.54643768  0.45168253    -0.14200
C562        C  0.01511833  0.54690892  0.48125025    -0.07500
C563        C  0.95236082  0.46271648  0.45675296     0.06000
C564        C  0.93033064  0.45894012  0.42448295    -0.08600
C565        C  0.90277713  0.43084750  0.42197020     0.01000
C566        C  0.89575998  0.40628149  0.45256371     0.00900
C567        C  0.93231255  0.39664428  0.04485704    -0.12200
C568        C  0.96031352  0.42337451  0.03656748     0.01300
C569        C  0.88429053  0.42599669  0.38651519     0.40600
C570        C  0.99507602  0.42174023  0.05742825     0.37300
C571        C  0.95654552  0.52593222  0.51140534     0.37000
C572        C  0.05983178  0.52017821  0.38945062     0.37800
N573        N  0.87038267  0.42230441  0.35757676    -0.43000
N574        N  0.02288571  0.42033363  0.07421995    -0.43500
N575        N  0.05039787  0.51186622  0.88384472    -0.40800
N576        N  0.93312566  0.53051768  0.53378561    -0.42300
H577        H  0.01700532  0.56857772  0.50279809     0.13900
H578        H  0.98963659  0.46144706  0.94166506     0.10400
H579        H  0.93535205  0.47751120  0.40066625     0.11400
H580        H  0.93680300  0.37696420  0.06785363     0.17200
C581        C  0.93521870  0.24643952  0.05715088    -0.01000
C582        C  0.94550083  0.24636294  0.47037476     0.07600
C583        C  0.95031931  0.26685747  0.43677345    -0.06900
C584        C  0.93282253  0.30251334  0.43185794     0.05100
C585        C  0.90971073  0.31767308  0.46051277    -0.14200
C586        C  0.92044771  0.28208550  0.06671833    -0.07500
C587        C  0.95237768  0.20447118  0.47083417     0.06000
C588        C  0.92091680  0.18072397  0.47466773    -0.08600
C589        C  0.92486362  0.14117407  0.47495737    -0.00600
C590        C  0.96112721  0.12425959  0.47167975     0.00900
C591        C  0.97561775  0.14146610  0.98160130    -0.12200
C592        C  0.97206303  0.18033224  0.98979543     0.01300
C593        C  0.89089958  0.11879126  0.47657792     0.40600
C594        C  0.00173492  0.20576572  0.97826775     0.37300
C595        C  0.94818822  0.22151545  0.08673608     0.37000
C596        C  0.93559608  0.32144268  0.39599254     0.37800
N597        N  0.86354000  0.10106655  0.47750398    -0.43000
N598        N  0.02556720  0.22616695  0.96909674    -0.43500
N599        N  0.93794240  0.33710172  0.36749450    -0.40800
N600        N  0.95831619  0.20151388  0.11052125    -0.42300
H601        H  0.91913657  0.28998364  0.09600975     0.13900
H602        H  0.96480109  0.25363845  0.41330430     0.10400
H603        H  0.89288497  0.19327910  0.47693968     0.11400
H604        H  0.00066102  0.13149930  0.96684565     0.17200
C605        C  0.67613636  0.43528039  0.48709408    -0.01000
C606        C  0.69849060  0.46310677  0.46928113     0.07600
C607        C  0.68095545  0.49634600  0.45613755    -0.06900
C608        C  0.64171896  0.50211041  0.46029102     0.05100
C609        C  0.61902237  0.47419797  0.47835339    -0.14200
C610        C  0.63715820  0.44120671  0.49197218    -0.07500
C611        C  0.73876602  0.45484421  0.45942349     0.06000
C612        C  0.74678905  0.44278490  0.42293456    -0.08600
C613        C  0.78027528  0.42300072  0.41479202     0.01000
C614        C  0.80671779  0.41527731  0.44340386     0.00900
C615        C  0.79770067  0.44152834  0.05205464    -0.12200
C616        C  0.76311421  0.45951318  0.04368767     0.01300
C617        C  0.78475503  0.40699986  0.37792761     0.40600
C618        C  0.75447068  0.49571447  0.06042869     0.37300
C619        C  0.69217951  0.39908937  0.49805929     0.37000
C620        C  0.62586447  0.53661911  0.44484371     0.37800
N621        N  0.78816215  0.39391009  0.34847173    -0.43000
N622        N  0.74749388  0.52476863  0.07380357    -0.43500
N623        N  0.61347782  0.56427534  0.43210693    -0.40800
N624        N  0.70513415  0.37000630  0.50635341    -0.42300
H625        H  0.62063128  0.41901801  0.50519305     0.13900
H626        H  0.69786271  0.51738423  0.44155694     0.10400
H627        H  0.72526155  0.44557443  0.40162129     0.11400
H628        H  0.81664852  0.45421266  0.07203366     0.17200
N629        N  0.86874518  0.36983939  0.03739656    -0.02400
C630        C  0.83079308  0.38060663  0.44104875     0.00200
C631        C  0.81467943  0.34551022  0.43573235    -0.22700
C632        C  0.84242637  0.31898702  0.44151397    -0.22900
C633        C  0.87472356  0.33851045  0.45035083     0.00100
H634        H  0.78529899  0.33976894  0.42999440     0.13800
H635        H  0.83923685  0.28851564  0.44043706     0.13900
N636        N  0.87472285  0.37098013  0.68172476    -0.02400
C637        C  0.83825584  0.37414642  0.66989257     0.00200
C638        C  0.82507232  0.33917068  0.65886630    -0.22700
C639        C  0.85383876  0.31363085  0.66409915    -0.22900
C640        C  0.88378012  0.33360996  0.67823606     0.00100
H641        H  0.79652746  0.33238875  0.65074045     0.13800
H642        H  0.85244204  0.28327674  0.66010124     0.13900
N643        N  0.56685265  0.87016082  0.93724557    -0.02400
C644        C  0.55280239  0.83768201  0.92249318     0.00200
C645        C  0.57843035  0.82149133  0.89783819    -0.22700
C646        C  0.60962963  0.84386292  0.89750568    -0.22900
C647        C  0.60204706  0.87323219  0.92176864     0.00100
H648        H  0.57632120  0.79392336  0.88488472     0.13800
H649        H  0.63614868  0.83782912  0.88334485     0.13900
N650        N  0.57550494  0.88139930  0.75989308    -0.02400
C651        C  0.60927681  0.89198277  0.77461033     0.00200
C652        C  0.62164966  0.86597108  0.80089799    -0.22700
C653        C  0.59538099  0.83792892  0.80235682    -0.22900
C654        C  0.56753423  0.84771944  0.77718664     0.00100
H655        H  0.64899214  0.86530637  0.81429308     0.13800
H656        H  0.59826625  0.81117975  0.81713278     0.13900
O657        O  0.88832673  0.93768679  0.94906819    -0.77400
C658        C  0.97524053  0.97368421  0.87154092     0.83600
O659        O  0.00320139  0.87998124  0.99484301    -0.78600
O660        O  0.05576728  0.00532400  0.95749624    -0.80000
O661        O  0.93467632  0.04996433  0.00520073    -0.79800
O662        O  0.87804983  0.97404165  0.99859919    -0.78500
Zn663      Zn  0.94476035  0.93385496  0.94170981     1.55700
O664        O  0.97900228  0.06284130  0.96261760    -0.79900
Cd665      Cd  0.94173910  0.00503728  0.50726939     1.59700
Cd666      Cd  0.01231648  0.94364237  0.50712296     1.59600
O667        O  0.95339265  0.99602957  0.56337247    -0.79900
O668        O  0.97092155  0.96760061  0.97543074    -1.90400
Cd669      Cd  0.99802846  0.00858463  0.94700247     1.59900
O670        O  0.00143460  0.95446268  0.56278656    -0.79800
O671        O  0.99116490  0.00012250  0.88974220    -0.78500
C672        C  0.98158144  0.86168527  0.97314432     0.84100
C673        C  0.86568372  0.95307342  0.97253140     0.83700
O674        O  0.95742142  0.94696048  0.88795293    -0.77400
C675        C  0.95396494  0.07381737  0.98629547     0.84500
O676        O  0.95852234  0.87880242  0.95148216    -0.77500
C677        C  0.97758239  0.97519629  0.58024613     0.84700
C678        C  0.07726897  0.98219567  0.97514763     0.85000
O679        O  0.06396202  0.95384024  0.99312783    -0.79900
O680        O  0.96826792  0.88066063  0.74502251    -0.77400
C681        C  0.97755886  0.97377171  0.83036077     0.83600
O682        O  0.88832991  0.98730485  0.70802683    -0.78600
O683        O  0.99562974  0.06618654  0.74376768    -0.80000
O684        O  0.07124193  0.96053070  0.70343398    -0.79800
O685        O  0.01148772  0.88614376  0.70001955    -0.78500
Zn686      Zn  0.95252090  0.93550570  0.75744329     1.55700
O687        O  0.06569164  0.00280494  0.74921985    -0.79900
Cd688      Cd  0.01602064  0.94448073  0.69319562     1.59700
Cd689      Cd  0.94332001  0.00220739  0.69541494     1.59600
O690        O  0.00418643  0.95612682  0.63773781    -0.79900
O691        O  0.97971954  0.97234272  0.72651133    -1.90400
Cd692      Cd  0.00808640  0.00962293  0.75766424     1.59900
O693        O  0.95241596  0.99274145  0.63912820    -0.79800
O694        O  0.99566698  0.00023403  0.81378141    -0.78500
C695        C  0.87448406  0.96132961  0.72881713     0.84100
C696        C  0.99101516  0.86551985  0.72132731     0.83700
O697        O  0.96141067  0.94729821  0.81237174    -0.77400
C698        C  0.08594384  0.98370360  0.72630616     0.84500
O699        O  0.89582199  0.93983312  0.74853031    -0.77500
C700        C  0.97807736  0.97474427  0.62124711     0.84700
C701        C  0.97165599  0.08084221  0.72126298     0.85000
O702        O  0.94977038  0.05991671  0.70244580    -0.79900
N703        N  0.06756634  0.56220393  0.96950942    -0.02400
C704        C  0.06033705  0.59846204  0.95784865     0.00200
C705        C  0.09093691  0.61306789  0.93858551    -0.22700
C706        C  0.11810974  0.58540743  0.93810526    -0.22900
C707        C  0.10343773  0.55453815  0.95709127     0.00100
H708        H  0.09357623  0.64145296  0.92716736     0.13800
H709        H  0.14625002  0.58795441  0.92630122     0.13900
N710        N  0.07473454  0.57007077  0.68652433    -0.02400
C711        C  0.11173336  0.56790069  0.67550730     0.00200
C712        C  0.12292307  0.60152503  0.65887446    -0.22700
C713        C  0.09260514  0.62561301  0.66035508    -0.22900
C714        C  0.06365885  0.60617055  0.67781692     0.00100
H715        H  0.15108949  0.60880056  0.64939404     0.13800
H716        H  0.09267633  0.65538523  0.65274497     0.13900
N717        N  0.37181760  0.07734269  0.96235278    -0.02400
C718        C  0.33404198  0.07501908  0.95551607     0.00200
C719        C  0.31747086  0.11066046  0.95601069    -0.22700
C720        C  0.34548966  0.13587244  0.96310839    -0.22900
C721        C  0.37834160  0.11493432  0.96692214     0.00100
H722        H  0.28780164  0.11742289  0.95252060     0.13800
H723        H  0.34235659  0.16633352  0.96540290     0.13900
N724        N  0.37850858  0.07879860  0.69537030    -0.02400
C725        C  0.34352410  0.07472526  0.68064925     0.00200
C726        C  0.33279846  0.10717356  0.66141440    -0.22700
C727        C  0.36213852  0.13197097  0.66393595    -0.22900
C728        C  0.38982372  0.11396652  0.68468385     0.00100
H729        H  0.30555867  0.11308219  0.64899337     0.13800
H730        H  0.36213688  0.16112854  0.65424882     0.13900
O731        O  0.44822699  0.45631266  0.90117094    -0.77400
C732        C  0.46733661  0.36743175  0.98571186     0.83600
O733        O  0.38135352  0.49820442  0.01086478    -0.78600
O734        O  0.49370530  0.45796833  0.57407804    -0.80000
O735        O  0.56313576  0.49153684  0.97396224    -0.79800
O736        O  0.50277600  0.48767520  0.90102732    -0.78500
Zn737      Zn  0.43721352  0.44416650  0.95585012     1.55700
O738        O  0.55919661  0.45423711  0.50365336    -0.79900
Cd739      Cd  0.50775509  0.50203770  0.95687999     1.59700
Cd740      Cd  0.43517346  0.51275038  0.51985642     1.59600
O741        O  0.49651683  0.55984207  0.95987670    -0.79900
O742        O  0.47004696  0.47342558  0.98792717    -1.90400
Cd743      Cd  0.50207906  0.44626830  0.51759867     1.59900
O744        O  0.44808005  0.56529433  0.99982405    -0.79800
O745        O  0.48782960  0.38200858  0.01102990    -0.78500
C746        C  0.36340160  0.47618514  0.98913802     0.84100
C747        C  0.47582983  0.47177403  0.88388845     0.83700
O748        O  0.44783768  0.38841881  0.96386090    -0.77400
C749        C  0.57708336  0.46885366  0.99829727     0.84500
O750        O  0.38110681  0.45401500  0.96680685    -0.77500
C751        C  0.47220462  0.58007758  0.97747113     0.84700
C752        C  0.47047978  0.47907359  0.59207619     0.85000
O753        O  0.44627925  0.50047559  0.57583622    -0.79900
O754        O  0.38605693  0.45883990  0.71686817    -0.77400
C755        C  0.47186981  0.47877519  0.63304022     0.83600
O756        O  0.49202654  0.38408445  0.76009348    -0.78600
O757        O  0.56442412  0.49148556  0.71052754    -0.80000
O758        O  0.45784432  0.56573648  0.76411368    -0.79800
O759        O  0.38609591  0.50322751  0.76050219    -0.78500
Zn760      Zn  0.44087606  0.44558828  0.70643122     1.55700
O761        O  0.50326798  0.56395070  0.72042987    -0.79900
Cd762      Cd  0.44335855  0.50878486  0.77097742     1.59700
Cd763      Cd  0.50739515  0.44035560  0.76844638     1.59600
O764        O  0.45212395  0.49384786  0.82642113    -0.79900
O765        O  0.47457900  0.47510484  0.73751433    -1.90400
Cd766      Cd  0.50805757  0.50736698  0.70532796     1.59900
O767        O  0.50000143  0.45196179  0.82519454    -0.79800
O768        O  0.49438547  0.50123120  0.64929565    -0.78500
C769        C  0.46785101  0.36908914  0.73854080     0.84100
C770        C  0.36829159  0.48181752  0.73824619     0.83700
O771        O  0.45083074  0.45584104  0.65121598    -0.77400
C772        C  0.48240876  0.58227951  0.74350268     0.84500
O773        O  0.44745684  0.38958122  0.71697570    -0.77500
C774        C  0.47599873  0.47240479  0.84293650     0.84700
C775        C  0.58210863  0.46713998  0.73047482     0.85000
O776        O  0.56454126  0.44585051  0.75380751    -0.79900
C777        C  0.42798826  0.18343949  0.75067148    -0.01000
C778        C  0.44901961  0.20605565  0.72550179     0.07600
C779        C  0.45990079  0.19103627  0.69074728    -0.06900
C780        C  0.44573741  0.15623633  0.67886007     0.05100
C781        C  0.42018979  0.13616528  0.70192303    -0.14200
C782        C  0.41397457  0.14844753  0.73881020    -0.07500
C783        C  0.45294810  0.24749463  0.73117618     0.06000
C784        C  0.48216511  0.26166990  0.75309250    -0.08600
C785        C  0.48731613  0.30096770  0.75679006     0.01000
C786        C  0.46294054  0.32693014  0.73793245     0.00900
C787        C  0.43295131  0.31213855  0.71699041    -0.12200
C788        C  0.42780805  0.27305145  0.71359316     0.01300
C789        C  0.51817323  0.31340200  0.77970018     0.40600
C790        C  0.39647635  0.25967129  0.69171831     0.37300
C791        C  0.41707869  0.19738258  0.78713545     0.37000
C792        C  0.45491918  0.14345113  0.64154129     0.37800
N793        N  0.54288656  0.32324453  0.79819215    -0.43000
N794        N  0.37142096  0.24881064  0.67426810    -0.43500
N795        N  0.46277072  0.13335301  0.61168695    -0.40800
N796        N  0.40835225  0.20852820  0.81639090    -0.42300
H797        H  0.39426712  0.13320696  0.75668946     0.13900
H798        H  0.47666447  0.20808798  0.67155988     0.10400
H799        H  0.50127250  0.24197222  0.76692422     0.11400
H800        H  0.41338748  0.33111125  0.70283098     0.17200
C801        C  0.48471376  0.26200944  0.00472439    -0.01000
C802        C  0.46153403  0.24464733  0.97792985     0.07600
C803        C  0.44147942  0.26785504  0.95279510    -0.06900
C804        C  0.44381070  0.30739023  0.95390276     0.05100
C805        C  0.46588053  0.32517171  0.98168591    -0.14200
C806        C  0.48662196  0.30178363  0.00647055    -0.07500
C807        C  0.45381671  0.20300318  0.97780513     0.06000
C808        C  0.43874657  0.18619274  0.01039974    -0.08600
C809        C  0.41947819  0.15174191  0.00865135     0.01000
C810        C  0.41455792  0.13389864  0.97387380     0.00900
C811        C  0.43434058  0.14757157  0.94250406    -0.12200
C812        C  0.45390425  0.18194254  0.94415860     0.01300
C813        C  0.39505611  0.14341369  0.54606144     0.40600
C814        C  0.47065328  0.19672798  0.91010579     0.37300
C815        C  0.50681752  0.23962038  0.03067013     0.37000
C816        C  0.42276394  0.32844607  0.92603737     0.37800
N817        N  0.37717169  0.13219664  0.57097444    -0.43000
N818        N  0.48374673  0.20867328  0.88270889    -0.43500
N819        N  0.38872455  0.34827535  0.41978801    -0.40800
N820        N  0.52442030  0.22158041  0.05148796    -0.42300
H821        H  0.50417976  0.31449487  0.02762679     0.13900
H822        H  0.42287801  0.25498724  0.93259981     0.10400
H823        H  0.43201021  0.20834190  0.54349406     0.11400
H824        H  0.43054897  0.13401250  0.91562372     0.17200
C825        C  0.26852140  0.46219067  0.70548515    -0.01000
C826        C  0.24804436  0.49325736  0.72012284     0.07600
C827        C  0.26589516  0.51723518  0.74558908    -0.06900
C828        C  0.30428308  0.51261684  0.75414507     0.05100
C829        C  0.32612799  0.48422555  0.73582004    -0.14200
C830        C  0.30721925  0.45832448  0.71279353    -0.07500
C831        C  0.20933992  0.50358991  0.70700561     0.06000
C832        C  0.18015086  0.50920091  0.73341410    -0.08600
C833        C  0.14585313  0.52665745  0.72319356     0.01000
C834        C  0.14017620  0.53833241  0.68572774     0.00900
C835        C  0.16821126  0.52978773  0.65889384    -0.12200
C836        C  0.20268832  0.51327677  0.66914756     0.01300
C837        C  0.11904809  0.53600551  0.75243608     0.40600
C838        C  0.23205114  0.51056174  0.64087804     0.37300
C839        C  0.25041297  0.43392425  0.68292119     0.37000
C840        C  0.32009201  0.53774888  0.78155628     0.37800
N841        N  0.09779036  0.54354054  0.77609677    -0.43000
N842        N  0.25546983  0.50850524  0.61813891    -0.43500
N843        N  0.33246770  0.55764863  0.80390242    -0.40800
N844        N  0.23588852  0.41116981  0.66496454    -0.42300
H845        H  0.32275511  0.43518411  0.69983289     0.13900
H846        H  0.25004546  0.54054104  0.75793198     0.10400
H847        H  0.18513768  0.50213958  0.76258444     0.11400
H848        H  0.16443943  0.53917601  0.63014232     0.17200
C849        C  0.26082907  0.44664191  0.97359307    -0.01000
C850        C  0.24063319  0.47985344  0.98351835     0.07600
C851        C  0.26075028  0.51070008  0.99748037    -0.06900
C852        C  0.30018270  0.50972925  0.00042221     0.05100
C853        C  0.32096587  0.47716800  0.98906175    -0.14200
C854        C  0.30060482  0.44565532  0.97608134    -0.07500
C855        C  0.19911904  0.48530974  0.97733270     0.06000
C856        C  0.17611772  0.49604496  0.00785815    -0.08600
C857        C  0.14114081  0.51440094  0.00232544     0.01000
C858        C  0.12791374  0.52105934  0.96564302     0.00900
C859        C  0.14859125  0.50558882  0.93549438    -0.12200
C860        C  0.18429007  0.48883866  0.94084747     0.01300
C861        C  0.11395518  0.53004282  0.51217256     0.40600
C862        C  0.20721182  0.48091134  0.90812776     0.37300
C863        C  0.24132391  0.41317528  0.96142385     0.37000
C864        C  0.31836706  0.54360516  0.01345086     0.37800
N865        N  0.09402553  0.53721776  0.53700726    -0.43000
N866        N  0.22558633  0.47502176  0.88180604    -0.43500
N867        N  0.33284331  0.57080878  0.02391339    -0.40800
N868        N  0.22569138  0.38626675  0.95186916    -0.42300
H869        H  0.31575760  0.42015286  0.96781844     0.13900
H870        H  0.24552245  0.53641746  0.00503111     0.10400
H871        H  0.17997348  0.49424398  0.51635179     0.11400
H872        H  0.13912232  0.51118848  0.90714275     0.17200
C873        C  0.27131338  0.02164609  0.73700988    -0.01000
C874        C  0.24682328  0.00966239  0.70846596     0.07600
C875        C  0.25900441  0.01208362  0.67099320    -0.06900
C876        C  0.29340924  0.02915887  0.66166021     0.05100
C877        C  0.31600434  0.04468173  0.68996858    -0.14200
C878        C  0.30542212  0.03936808  0.72757900    -0.07500
C879        C  0.20657137  0.00030786  0.71649405     0.06000
C880        C  0.18373169  0.02785514  0.73390797    -0.08600
C881        C  0.14479975  0.02273301  0.73848932     0.01000
C882        C  0.12766860  0.98921692  0.72530747     0.00900
C883        C  0.15084500  0.96123617  0.70865723    -0.12200
C884        C  0.18985797  0.96654229  0.70412585     0.01300
C885        C  0.12322666  0.05353021  0.75481829     0.40600
C886        C  0.21212955  0.93708005  0.68648832     0.37300
C887        C  0.26106720  0.01771916  0.77607069     0.37000
C888        C  0.30384688  0.03312040  0.62265808     0.37800
N889        N  0.10610073  0.07833487  0.76783751    -0.43000
N890        N  0.23002967  0.91357386  0.67221839    -0.43500
N891        N  0.31267990  0.03678446  0.59158726    -0.40800
N892        N  0.25268335  0.01438874  0.80730604    -0.42300
H893        H  0.32193015  0.05203256  0.74951175     0.13900
H894        H  0.24049020  0.00299986  0.64879749     0.10400
H895        H  0.19622041  0.05429155  0.74272612     0.11400
H896        H  0.13841465  0.93525989  0.69860801     0.17200
C897        C  0.97539643  0.76040418  0.74315058    -0.01000
C898        C  0.99656836  0.74225880  0.71476386     0.07600
C899        C  0.01493161  0.76465134  0.68773443    -0.06900
C900        C  0.01322560  0.80436726  0.68881679     0.05100
C901        C  0.99332333  0.82302288  0.71826262    -0.14200
C902        C  0.97424487  0.80027055  0.74492660    -0.07500
C903        C  0.00172611  0.70019625  0.71266821     0.06000
C904        C  0.99042996  0.68140609  0.68005217    -0.08600
C905        C  0.00529377  0.64553960  0.67104046     0.01000
C906        C  0.03204919  0.62809987  0.69466593     0.00900
C907        C  0.03890017  0.64428179  0.72978682    -0.12200
C908        C  0.02431904  0.68027116  0.73881213     0.01300
C909        C  0.99604742  0.62886339  0.63550997     0.40600
C910        C  0.03693621  0.69799468  0.77277698     0.37300
C911        C  0.95362205  0.73873908  0.76994430     0.37000
C912        C  0.03137304  0.82461240  0.65840697     0.37800
N913        N  0.98857392  0.61524496  0.60715574    -0.43000
N914        N  0.04706830  0.71215764  0.80001242    -0.43500
N915        N  0.04578716  0.84031302  0.63363578    -0.40800
N916        N  0.93589901  0.72138823  0.79124684    -0.42300
H917        H  0.95808153  0.81357913  0.76723998     0.13900
H918        H  0.03094375  0.75087391  0.66553365     0.10400
H919        H  0.97259516  0.69616672  0.66005790     0.11400
H920        H  0.05979803  0.63125198  0.74797058     0.17200
C921        C  0.18314068  0.96153361  0.97283817    -0.01000
C922        C  0.19831815  0.99813944  0.96876962     0.07600
C923        C  0.17369806  0.02957026  0.96873618    -0.06900
C924        C  0.13449359  0.02510999  0.97161469     0.05100
C925        C  0.11892670  0.98835642  0.97446307    -0.14200
C926        C  0.14377163  0.95690952  0.97589642    -0.07500
C927        C  0.23933218  0.00518396  0.96223109     0.06000
C928        C  0.25019767  0.02008125  0.92735574    -0.08600
C929        C  0.28505129  0.03792849  0.92259514     0.01000
C930        C  0.31008209  0.04088233  0.95308605     0.00900
C931        C  0.30132588  0.02153258  0.98655828    -0.12200
C932        C  0.26600467  0.00395982  0.99144323     0.01300
C933        C  0.29203003  0.05774863  0.88772082     0.40600
C934        C  0.26500495  0.98605926  0.53114041     0.37300
C935        C  0.21419282  0.92549136  0.48063959     0.37000
C936        C  0.11109756  0.05889877  0.97242108     0.37800
N937        N  0.29718486  0.07392138  0.85986087    -0.43000
N938        N  0.25788358  0.97258104  0.55995984    -0.43500
N939        N  0.09234642  0.08595379  0.97313984    -0.40800
N940        N  0.23333494  0.89878126  0.48261064    -0.42300
H941        H  0.13889631  0.92672104  0.48428621     0.13900
H942        H  0.18527535  0.05786964  0.96604811     0.10400
H943        H  0.22993669  0.02083326  0.90470741     0.11400
H944        H  0.31996288  0.02415292  0.01034467     0.17200
C945        C  0.02287280  0.76268518  0.98165551    -0.01000
C946        C  0.99174749  0.73934135  0.97351856     0.07600
C947        C  0.95676840  0.75649913  0.96543847    -0.06900
C948        C  0.95254773  0.79619796  0.96527723     0.05100
C949        C  0.98391706  0.81951645  0.97304822    -0.14200
C950        C  0.01869378  0.80215566  0.98145441    -0.07500
C951        C  0.99622235  0.69720898  0.97240358     0.06000
C952        C  0.00944462  0.67819260  0.00443096    -0.08600
C953        C  0.02608598  0.64207838  0.00180153     0.01000
C954        C  0.02755214  0.62331455  0.96696577     0.00900
C955        C  0.00874861  0.64002191  0.93635480    -0.12200
C956        C  0.99399350  0.67705027  0.93850153     0.01300
C957        C  0.04706456  0.62837956  0.03365159     0.40600
C958        C  0.98160190  0.69542206  0.90442096     0.37300
C959        C  0.05982879  0.74690251  0.98941562     0.37000
C960        C  0.91539630  0.81205534  0.95871354     0.37800
N961        N  0.06441396  0.61856771  0.55272319    -0.43000
N962        N  0.97198730  0.71028160  0.87707147    -0.43500
N963        N  0.88385907  0.83344560  0.45717667    -0.40800
N964        N  0.08939151  0.73427146  0.99581701    -0.42300
H965        H  0.04303934  0.81954092  0.98737636     0.13900
H966        H  0.93266234  0.73880381  0.95951260     0.10400
H967        H  0.01086844  0.69343431  0.03067098     0.11400
H968        H  0.01041432  0.62631658  0.90926841     0.17200
C969        C  0.42982170  0.00336554  0.75066837    -0.01000
C970        C  0.45696707  0.99043345  0.72410177     0.07600
C971        C  0.45520475  0.00491825  0.68736773    -0.06900
C972        C  0.42843610  0.03269545  0.67753819     0.05100
C973        C  0.40392692  0.04806049  0.70492464    -0.14200
C974        C  0.40454361  0.03288050  0.74127884    -0.07500
C975        C  0.48753723  0.96225879  0.73372933     0.06000
C976        C  0.49345977  0.93037887  0.71087545    -0.08600
C977        C  0.52294667  0.90426452  0.71781411     0.01000
C978        C  0.54659701  0.90886017  0.74916555     0.00900
C979        C  0.54074755  0.94102598  0.77175310    -0.12200
C980        C  0.51259612  0.96803461  0.76370281     0.01300
C981        C  0.52917025  0.87481412  0.69071899     0.40600
C982        C  0.51147499  0.00250002  0.78529096     0.37300
C983        C  0.42619939  0.98574550  0.78712971     0.37000
C984        C  0.42557427  0.04442643  0.63887651     0.37800
N985        N  0.53294779  0.85231894  0.66751710    -0.43000
N986        N  0.51043592  0.03035813  0.80221427    -0.43500
N987        N  0.42250761  0.05360283  0.60787282    -0.40800
N988        N  0.42310242  0.97148286  0.81626774    -0.42300
H989        H  0.38525483  0.04391838  0.76227962     0.13900
H990        H  0.47488031  0.99460609  0.66626077     0.10400
H991        H  0.47526843  0.92617772  0.68697886     0.11400
H992        H  0.55852145  0.94520885  0.79588250     0.17200
C993        C  0.49845951  0.76796391  0.78266549    -0.01000
C994        C  0.51151427  0.74443515  0.75320287     0.07600
C995        C  0.53712441  0.75969163  0.72697245    -0.06900
C996        C  0.55415395  0.79477273  0.73289936     0.05100
C997        C  0.54236700  0.81770399  0.76316664    -0.14200
C998        C  0.51361748  0.80439776  0.78702828    -0.07500
C999        C  0.50342744  0.70271087  0.75177283     0.06000
C1000       C  0.46602794  0.68937434  0.75278144    -0.08600
C1001       C  0.45832143  0.65028649  0.75122929     0.01000
C1002       C  0.48828621  0.62380569  0.74703129     0.00900
C1003       C  0.52547784  0.63711872  0.74610424    -0.12200
C1004       C  0.53330049  0.67575402  0.74927503     0.01300
C1005       C  0.41948190  0.63817658  0.75300472     0.40600
C1006       C  0.57250650  0.68667005  0.75112499     0.37300
C1007       C  0.47215382  0.75444188  0.81069844     0.37000
C1008       C  0.58709451  0.80394826  0.71054502     0.37800
N1009       N  0.38839940  0.62831726  0.75464804    -0.43000
N1010       N  0.60389888  0.69544370  0.75249030    -0.43500
N1011       N  0.61350676  0.81074809  0.69248473    -0.40800
N1012       N  0.45094334  0.74379105  0.83316870    -0.42300
H1013       H  0.50556338  0.82111345  0.81119249     0.13900
H1014       H  0.54684829  0.74235738  0.70377494     0.10400
H1015       H  0.44275219  0.70949834  0.75451628     0.11400
H1016       H  0.54877620  0.61702219  0.74379589     0.17200
C1017       C  0.77784486  0.92815208  0.76207921    -0.01000
C1018       C  0.75335209  0.94520649  0.73583949     0.07600
C1019       C  0.76867420  0.96654209  0.70630668    -0.06900
C1020       C  0.80786628  0.97169409  0.70299537     0.05100
C1021       C  0.83260853  0.95597561  0.73028096    -0.14200
C1022       C  0.81690123  0.93397687  0.75945440    -0.07500
C1023       C  0.71181235  0.93951550  0.73843561     0.06000
C1024       C  0.69129476  0.95771592  0.76700550    -0.08600
C1025       C  0.65442264  0.94642608  0.77613494     0.01000
C1026       C  0.63735109  0.91688046  0.75606177     0.00900
C1027       C  0.65633745  0.90196450  0.72467593    -0.12200
C1028       C  0.69357217  0.91251996  0.71614665     0.01300
C1029       C  0.63572753  0.96364549  0.80788899     0.40600
C1030       C  0.71391578  0.89221071  0.68724843     0.37300
C1031       C  0.76351026  0.90308865  0.79090922     0.37000
C1032       C  0.82169912  0.99175089  0.67032735     0.37800
N1033       N  0.62085546  0.97783910  0.83322325    -0.43000
N1034       N  0.73040729  0.87573868  0.66434757    -0.43500
N1035       N  0.83285924  0.00753600  0.64400664    -0.40800
N1036       N  0.75175574  0.88265005  0.81356036    -0.42300
H1037       H  0.83513871  0.92094686  0.78022516     0.13900
H1038       H  0.74994717  0.97874968  0.68547776     0.10400
H1039       H  0.70506899  0.97891062  0.78386461     0.11400
H1040       H  0.64380987  0.87878159  0.70953709     0.17200
C1041       C  0.51874968  0.96525505  0.92882674    -0.01000
C1042       C  0.49041676  0.96329138  0.95688635     0.07600
C1043       C  0.49048265  0.93178793  0.98125405    -0.06900
C1044       C  0.51693941  0.90202904  0.97707662     0.05100
C1045       C  0.54335492  0.90265507  0.94712393    -0.14200
C1046       C  0.54427463  0.93505184  0.92387410    -0.07500
C1047       C  0.45938473  0.99253594  0.95957808     0.06000
C1048       C  0.43792265  0.00084650  0.92752981    -0.08600
C1049       C  0.40922624  0.02851881  0.92810688     0.01000
C1050       C  0.40001901  0.04743977  0.96162834     0.00900
C1051       C  0.42121978  0.03923953  0.99383116    -0.12200
C1052       C  0.45518180  0.02033110  0.50513459     0.01300
C1053       C  0.39193850  0.03925004  0.89317477     0.40600
C1054       C  0.47789431  0.02005707  0.53852711     0.37300
C1055       C  0.52259889  0.99820120  0.90494140     0.37000
C1056       C  0.52457005  0.88866315  0.54345024     0.37800
N1057       N  0.37914003  0.04796171  0.86464774    -0.43000
N1058       N  0.49608094  0.01979577  0.56531788    -0.43500
N1059       N  0.52647739  0.87173845  0.57125850    -0.40800
N1060       N  0.52588623  0.02472455  0.88599020    -0.42300
H1061       H  0.56448207  0.93636617  0.90092182     0.13900
H1062       H  0.47395716  0.94245957  0.53001734     0.10400
H1063       H  0.44417873  0.98618427  0.90158230     0.11400
H1064       H  0.42053614  0.06676627  0.52510077     0.17200
C1065       C  0.52280021  0.75517821  0.97979860    -0.01000
C1066       C  0.49255539  0.74167129  0.95825607     0.07600
C1067       C  0.47645540  0.76561338  0.93093673    -0.06900
C1068       C  0.49254045  0.80098454  0.92256293     0.05100
C1069       C  0.52549043  0.81227244  0.94108630    -0.14200
C1070       C  0.53933753  0.78989230  0.97064712    -0.07500
C1071       C  0.48138791  0.70112559  0.96072212     0.06000
C1072       C  0.46569653  0.68697480  0.99414644    -0.08600
C1073       C  0.46140108  0.64784331  0.99996797     0.01000
C1074       C  0.47256384  0.62196973  0.97168517     0.00900
C1075       C  0.48657837  0.63646964  0.93755298    -0.12200
C1076       C  0.49120278  0.67551232  0.93194428     0.01300
C1077       C  0.44826152  0.63516038  0.03628906     0.40600
C1078       C  0.52838482  0.70261217  0.43719504     0.37300
C1079       C  0.50414990  0.74219733  0.55450753     0.37000
C1080       C  0.47613615  0.82463466  0.89374648     0.37800
N1081       N  0.43793656  0.62503712  0.06549414    -0.43000
N1082       N  0.55175984  0.71502978  0.41798354    -0.43500
N1083       N  0.46283555  0.84412539  0.87112989    -0.40800
N1084       N  0.50449846  0.72423317  0.58175010    -0.42300
H1085       H  0.54358049  0.80385204  0.54222365     0.13900
H1086       H  0.45261224  0.75581671  0.91488950     0.10400
H1087       H  0.45854659  0.70651693  0.01649123     0.11400
H1088       H  0.51344929  0.63068306  0.44510069     0.17200
C1089       C  0.69052514  0.92967481  0.91297464    -0.01000
C1090       C  0.70570412  0.92523090  0.94917337     0.07600
C1091       C  0.68244500  0.91150502  0.97818558    -0.06900
C1092       C  0.64590524  0.89851125  0.97072354     0.05100
C1093       C  0.63239439  0.89906031  0.93362933    -0.14200
C1094       C  0.65435383  0.91619575  0.90543313    -0.07500
C1095       C  0.74655198  0.93145553  0.95636607     0.06000
C1096       C  0.75749845  0.95855961  0.98255295    -0.08600
C1097       C  0.79585332  0.96553722  0.98934951     0.01000
C1098       C  0.82428256  0.94575615  0.96883140     0.00900
C1099       C  0.81287439  0.91753944  0.94367412    -0.12200
C1100       C  0.77468528  0.90977143  0.93796826     0.01300
C1101       C  0.81691256  0.01726608  0.51817435     0.40600
C1102       C  0.76512149  0.87816843  0.91440882     0.37300
C1103       C  0.71220434  0.94652029  0.88283679     0.37000
C1104       C  0.62465671  0.88114243  0.00082570     0.37800
N1105       N  0.82710391  0.04227277  0.53620237    -0.43000
N1106       N  0.75750201  0.85258205  0.89589739    -0.43500
N1107       N  0.63019734  0.88387539  0.57100837    -0.40800
N1108       N  0.72970560  0.96013050  0.85884577    -0.42300
H1109       H  0.64423184  0.91653539  0.87686332     0.13900
H1110       H  0.69374803  0.90859763  0.00621122     0.10400
H1111       H  0.74581422  0.99793838  0.51050017     0.11400
H1112       H  0.83386886  0.90083077  0.92867003     0.17200
C1113       C  0.95271940  0.42798928  0.72459278    -0.01000
C1114       C  0.95916162  0.45584590  0.69671048     0.07600
C1115       C  0.93646055  0.45602849  0.66467207    -0.06900
C1116       C  0.90815526  0.42898171  0.65983335     0.05100
C1117       C  0.90118101  0.40138124  0.68790228    -0.14200
C1118       C  0.92365548  0.40138163  0.72020847    -0.07500
C1119       C  0.99129012  0.48307207  0.69822804     0.06000
C1120       C  0.01988588  0.48012718  0.67102895    -0.08600
C1121       C  0.04836498  0.50734098  0.66789479     0.01000
C1122       C  0.04911159  0.53857926  0.69271329     0.00900
C1123       C  0.02111027  0.54073114  0.72088569    -0.12200
C1124       C  0.99233724  0.51347118  0.72372843     0.01300
C1125       C  0.07471105  0.50341401  0.63714049     0.40600
C1126       C  0.96306753  0.51839627  0.75167446     0.37300
C1127       C  0.97707705  0.42469936  0.75667357     0.37000
C1128       C  0.88909686  0.42823876  0.62429473     0.37800
N1129       N  0.09564703  0.49943468  0.61239786    -0.43000
N1130       N  0.93954940  0.52231365  0.77405905    -0.43500
N1131       N  0.87453319  0.42786121  0.59540677    -0.40800
N1132       N  0.99683062  0.42195537  0.78223332    -0.42300
H1133       H  0.91916931  0.37986820  0.74152667     0.13900
H1134       H  0.94184677  0.47666146  0.64263495     0.10400
H1135       H  0.01914491  0.45699467  0.65116347     0.11400
H1136       H  0.02113351  0.56431261  0.74013737     0.17200
C1137       C  0.93360612  0.26323657  0.73705978    -0.01000
C1138       C  0.95613984  0.24520839  0.70952071     0.07600
C1139       C  0.96309258  0.26426769  0.67549186    -0.06900
C1140       C  0.94402342  0.29822339  0.66684353     0.05100
C1141       C  0.91760923  0.31347157  0.69244566    -0.14200
C1142       C  0.91472079  0.29728276  0.72837830    -0.07500
C1143       C  0.96350800  0.20358957  0.71141115     0.06000
C1144       C  0.94109821  0.18043138  0.68915258    -0.08600
C1145       C  0.94365147  0.14088720  0.69126681     0.01000
C1146       C  0.96907781  0.12317439  0.71673560     0.00900
C1147       C  0.99252137  0.14672680  0.73822394    -0.12200
C1148       C  0.98996476  0.18655122  0.73565817     0.01300
C1149       C  0.91948696  0.11980898  0.66667979     0.40600
C1150       C  0.01497477  0.20936237  0.75768499     0.37300
C1151       C  0.92543986  0.24494418  0.77248270     0.37000
C1152       C  0.94842958  0.31456635  0.62990497     0.37800
N1153       N  0.90008626  0.10318904  0.64679754    -0.43000
N1154       N  0.03517856  0.22767010  0.77517978    -0.43500
N1155       N  0.95184914  0.32782868  0.60035079    -0.40800
N1156       N  0.91879780  0.23034746  0.80087949    -0.42300
H1157       H  0.89401418  0.30856518  0.74802268     0.13900
H1158       H  0.98045660  0.25067561  0.65422300     0.10400
H1159       H  0.92081676  0.19350580  0.67028258     0.11400
H1160       H  0.01279601  0.13411496  0.75732211     0.17200
C1161       C  0.77096416  0.43254707  0.72678725    -0.01000
C1162       C  0.74200736  0.43937344  0.70049431     0.07600
C1163       C  0.74962886  0.43303024  0.66243911    -0.06900
C1164       C  0.78360933  0.41585654  0.65093922     0.05100
C1165       C  0.81124955  0.40565764  0.67769437    -0.14200
C1166       C  0.80549129  0.41630061  0.71513791    -0.07500
C1167       C  0.70225787  0.44825777  0.71200607     0.06000
C1168       C  0.68551887  0.48262943  0.70076591    -0.08600
C1169       C  0.64697398  0.49010078  0.70750468     0.01000
C1170       C  0.62401254  0.46248115  0.72554116     0.00900
C1171       C  0.64130509  0.42847198  0.73758055    -0.12200
C1172       C  0.67976626  0.42110704  0.73075817     0.01300
C1173       C  0.63213371  0.52651138  0.69572299     0.40600
C1174       C  0.69500626  0.38449970  0.74140455     0.37300
C1175       C  0.76480215  0.43924629  0.76619698     0.37000
C1176       C  0.78776052  0.40530752  0.61208197     0.37800
N1177       N  0.62037740  0.55575322  0.68628889    -0.43000
N1178       N  0.70726284  0.35517644  0.74989803    -0.43500
N1179       N  0.79094074  0.39638460  0.58107534    -0.40800
N1180       N  0.75979413  0.44425670  0.79785091    -0.42300
H1181       H  0.82622174  0.40817533  0.73598656     0.13900
H1182       H  0.72768636  0.43850818  0.64200608     0.10400
H1183       H  0.70259022  0.50353014  0.68618164     0.11400
H1184       H  0.62445116  0.40677612  0.75120553     0.17200
C1185       C  0.99489201  0.50747440  0.02515919    -0.01000
C1186       C  0.98327223  0.48024442  0.99876487     0.07600
C1187       C  0.99895564  0.48155855  0.96253149    -0.06900
C1188       C  0.02633989  0.50848946  0.95275113     0.05100
C1189       C  0.03936754  0.53438428  0.97958454    -0.14200
C1190       C  0.02311742  0.53374024  0.01557166    -0.07500
C1191       C  0.95450825  0.45060350  0.00799290     0.06000
C1192       C  0.92118014  0.44883054  0.98695186    -0.08600
C1193       C  0.89329450  0.42164012  0.99484308     0.01000
C1194       C  0.89826222  0.39547097  0.02470103     0.00900
C1195       C  0.91772613  0.40977893  0.48491917    -0.12200
C1196       C  0.94605582  0.43745775  0.48714858     0.01300
C1197       C  0.86083528  0.42082206  0.97079896     0.40600
C1198       C  0.96935771  0.43817340  0.52013707     0.37300
C1199       C  0.97705102  0.51012721  0.06159235     0.37000
C1200       C  0.03977436  0.51016871  0.91454432     0.37800
N1201       N  0.83541196  0.42095521  0.95061405    -0.43000
N1202       N  0.98799511  0.43886177  0.54660410    -0.43500
N1203       N  0.07695050  0.52136095  0.36171171    -0.40800
N1204       N  0.96254576  0.51233440  0.09068452    -0.42300
H1205       H  0.03230125  0.55394724  0.03633702     0.13900
H1206       H  0.00727320  0.46986077  0.40489736     0.10400
H1207       H  0.91685363  0.46897527  0.96428530     0.11400
H1208       H  0.91305001  0.39047031  0.50819692     0.17200
C1209       C  0.92734518  0.26441289  0.50089696    -0.01000
C1210       C  0.93452886  0.23439411  0.01960727     0.07600
C1211       C  0.92161113  0.25968682  0.99194286    -0.06900
C1212       C  0.90592619  0.29510355  0.00160872     0.05100
C1213       C  0.90359623  0.30587631  0.03967187    -0.14200
C1214       C  0.90970075  0.29981426  0.49576468    -0.07500
C1215       C  0.94031138  0.19374605  0.00990040     0.06000
C1216       C  0.91224722  0.16809180  0.02072121    -0.08600
C1217       C  0.91546517  0.12944931  0.01250810    -0.00600
C1218       C  0.94779090  0.11532432  0.99309476     0.00900
C1219       C  0.99260941  0.14802293  0.46680814    -0.12200
C1220       C  0.98849704  0.18778368  0.46628829     0.01300
C1221       C  0.88452353  0.10550356  0.02398358     0.40600
C1222       C  0.02174837  0.21079331  0.46187825     0.37300
C1223       C  0.92362354  0.24559427  0.53678543     0.37000
C1224       C  0.88876548  0.31743604  0.97225961     0.37800
N1225       N  0.85952824  0.08663791  0.03331499    -0.43000
N1226       N  0.04852307  0.22910917  0.45829560    -0.43500
N1227       N  0.87514683  0.33465373  0.94811785    -0.40800
N1228       N  0.92065852  0.23045479  0.56550715    -0.42300
H1229       H  0.89201495  0.31124151  0.51802787     0.13900
H1230       H  0.92086421  0.25043220  0.96304586     0.10400
H1231       H  0.88743415  0.17848523  0.03564659     0.11400
H1232       H  0.02059812  0.13553039  0.46397300     0.17200
C1233       C  0.67101097  0.45191614  0.04623044    -0.01000
C1234       C  0.69706532  0.45486028  0.01621264     0.07600
C1235       C  0.68379236  0.46541224  0.98066204    -0.06900
C1236       C  0.64512836  0.47198795  0.97444412     0.05100
C1237       C  0.61873183  0.46694698  0.00403182    -0.14200
C1238       C  0.63234260  0.45766923  0.03988881    -0.07500
C1239       C  0.73688343  0.44147232  0.02026229     0.06000
C1240       C  0.74710894  0.40715324  0.00326473    -0.08600
C1241       C  0.78139679  0.38915763  0.01164373     0.01000
C1242       C  0.80675019  0.40593996  0.03690941     0.00900
C1243       C  0.80114418  0.43215661  0.47857675    -0.12200
C1244       C  0.76727069  0.45177663  0.48679243     0.01300
C1245       C  0.78856630  0.35194828  0.99629382     0.40600
C1246       C  0.76121410  0.46635570  0.52403831     0.37300
C1247       C  0.68302587  0.44125401  0.08345553     0.37000
C1248       C  0.63329188  0.48185497  0.93700585     0.37800
N1249       N  0.79405585  0.32205286  0.98413167    -0.43000
N1250       N  0.75645943  0.47828965  0.55383493    -0.43500
N1251       N  0.62380060  0.48993598  0.90703363    -0.40800
N1252       N  0.69270570  0.43300051  0.11332759    -0.42300
H1253       H  0.61258686  0.45423413  0.06303561     0.13900
H1254       H  0.70364240  0.46741615  0.95743413     0.10400
H1255       H  0.72710181  0.39311086  0.98527040     0.11400
H1256       H  0.82119102  0.42652342  0.50078232     0.17200
loop_ 
_geom_bond_atom_site_label_1 
_geom_bond_atom_site_label_2 
_geom_bond_distance 
_geom_bond_site_symmetry_2 
_ccdc_geom_bond_type 
N1          C566   1.446       .  S
N1          C633   1.362       .  A
N1          C630   1.364       .  A
C2          N629   1.366       .  A
C2            C3   1.381       .  A
C2         C1242   1.480       .  S
C3            C4   1.363       .  A
C3            H6   1.083       .  S
C4            C5   1.381       .  A
C4            H7   1.082       .  S
C5          N629   1.366       .  A
C5         C1213   1.493       .  S
N8          C489   1.453       .  S
N8           C12   1.367       .  A
N8            C9   1.366       .  A
C9           C10   1.380       .  A
C9          C537   1.481       .  S
C10          C11   1.362       .  A
C10          H13   1.083       .  S
C11          C12   1.381       .  A
C11          H14   1.083       .  S
C12         C513   1.489       .  S
N15         C417   1.447       .  S
N15          C19   1.360       .  A
N15          C16   1.361       .  A
C16          C17   1.380       .  A
C16         C441   1.475       .  S
C17          C18   1.365       .  A
C17          H20   1.083       .  S
C18          C19   1.380       .  A
C18          H21   1.083       .  S
C19         C465   1.473       .  S
N22         C350   1.452       .  S
N22          C26   1.366       .  A
N22          C23   1.362       .  A
C23          C24   1.378       .  A
C23         C398   1.486       .  S
C24          C25   1.369       .  A
C24          H27   1.083       .  S
C25          C26   1.385       .  A
C25          H28   1.083       .  S
C26         C369   1.489       .  S
O29          C45   1.276       .  A
O29         Zn35   2.028       .  S
C30          C53   1.471       .  S
C30          O46   1.277       .  A
C30          O43   1.276   1_655  A
O31          C44   1.275   1_455  A
O31        Cd666   2.065       .  S
O32          C50   1.277   1_545  A
O32         Cd41   2.075       .  S
O33          C47   1.277       .  A
O33        Cd665   2.081       .  S
O34          C45   1.273       .  A
O34        Cd665   2.067   1_565  S
Zn35         O46   2.029       .  S
Zn35         O48   2.027       .  S
Zn35         O40   1.954       .  S
O36          C47   1.277       .  A
O36         Cd41   2.090   1_655  S
Cd37         O39   2.066       .  S
Cd37        O661   2.067   1_565  S
Cd37        O662   2.085   1_554  S
Cd37        O668   2.000   1_554  S
Cd38         O42   2.069   1_455  S
Cd38        O659   2.073   1_554  S
Cd38        O679   2.083   1_554  S
Cd38        O668   2.006   1_454  S
O39          C49   1.275       .  A
O40         Cd41   1.999   1_665  S
O40        Cd665   2.002   1_565  S
O40        Cd666   2.006   1_655  S
Cd41         O43   2.072   1_545  S
O42          C49   1.274       .  A
C44         C321   1.487       .  S
C44          O48   1.274       .  A
C45         C470   1.495       .  S
C47         C590   1.492       .  S
C49          C72   1.466       .  S
C50         C297   1.491       .  S
C50          O51   1.276       .  A
O51        Cd666   2.091       .  S
O52          C68   1.278       .  A
O52         Zn58   2.054       .  S
C53          O69   1.276       .  A
C53          O66   1.276   1_655  A
O54          C67   1.273       .  A
O54         Cd61   2.073       .  S
O55          C73   1.277       .  A
O55         Cd64   2.093   1_655  S
O56          C70   1.277       .  A
O56         Cd60   2.086       .  S
O57          C68   1.276   1_455  A
O57         Cd60   2.074       .  S
Zn58         O69   2.027       .  S
Zn58         O71   2.036       .  S
Zn58         O63   1.955       .  S
O59          C70   1.276       .  A
O59         Cd64   2.077   1_565  S
Cd60         O62   2.079       .  S
Cd60         O63   2.007   1_455  S
Cd61         O65   2.058       .  S
Cd61         O74   2.070   1_565  S
Cd61         O63   2.000       .  S
O62          C72   1.276   1_455  A
O63         Cd64   2.006   1_665  S
Cd64         O66   2.075   1_545  S
O65          C72   1.274       .  A
C67         C393   1.498       .  S
C67          O71   1.277       .  A
C68         C273   1.491       .  S
C70         C254   1.492       .  S
C73         C518   1.499       .  S
C73          O74   1.274       .  A
N75         C561   1.449       .  S
N75          C79   1.364       .  A
N75          C76   1.362       .  A
C76          C77   1.379       .  A
C76         C326   1.477       .  S
C77          C78   1.367       .  A
C77          H80   1.083       .  S
C78          C79   1.382       .  A
C78          H81   1.082       .  S
C79         C230   1.484       .  S
N82         C494   1.452       .  S
N82          C86   1.362       .  A
N82          C83   1.363       .  A
C83          C84   1.381       .  A
C83         C206   1.486       .  S
C84          C85   1.367       .  A
C84          H87   1.083       .  S
C85          C86   1.381       .  A
C85          H88   1.083       .  S
C86         C278   1.481       .  S
N89         C422   1.447       .  S
N89          C93   1.362       .  A
N89          C90   1.365       .  A
C90          C91   1.383       .  A
C90         C302   1.485       .  S
C91          C92   1.364       .  A
C91          H94   1.083       .  S
C92          C93   1.379       .  A
C92          H95   1.083       .  S
C93         C182   1.478       .  S
N96         C345   1.445       .  S
N96         C100   1.362       .  A
N96          C97   1.362       .  A
C97          C98   1.382       .  A
C97         C249   1.485       .  S
C98          C99   1.368       .  A
C98         H101   1.083       .  S
C99         C100   1.380       .  A
C99         H102   1.082       .  S
C100        C153   1.484       .  S
O103        C119   1.272       .  A
O103       Zn109   2.010       .  S
C104        C177   1.499       .  S
C104        O120   1.273       .  A
C104        O117   1.277       .  A
O105        C118   1.277       .  A
O105       Cd740   2.089       .  S
O106        C124   1.274       .  A
O106       Cd115   2.066       .  S
O107        C121   1.276       .  A
O107       Cd111   2.087       .  S
O108        C119   1.273       .  A
O108       Cd111   2.067       .  S
Zn109       O120   2.007       .  S
Zn109       O122   2.030       .  S
Zn109       O114   1.951       .  S
O110        C749   1.275   1_554  A
O110       Cd115   2.072       .  S
Cd111       O113   2.067       .  S
Cd111       O114   2.001       .  S
Cd112       O125   2.087       .  S
Cd112       O733   2.090       .  S
Cd112       O744   2.080   1_554  S
Cd112       O742   2.000   1_554  S
O113        C123   1.276       .  A
O114       Cd740   2.011       .  S
O114       Cd743   2.010       .  S
Cd115       O745   2.087       .  S
Cd115       O742   2.002   1_554  S
O116        C123   1.277       .  A
O116       Cd740   2.095       .  S
O117       Cd743   2.091       .  S
C118        C225   1.501       .  S
C118        O122   1.275       .  A
C119        C146   1.456       .  S
C121        C609   1.505       .  S
C121        O738   1.279       .  A
C123        C446   1.500       .  S
C124        C127   1.462       .  S
C124        O125   1.276       .  A
O126        C142   1.274       .  A
O126       Zn132   2.015       .  S
C127        O143   1.271       .  A
C127        O140   1.278       .  A
O128        C141   1.278       .  A
O128       Cd135   2.108       .  S
O129        C147   1.277       .  A
O129       Cd138   2.090       .  S
O130        C144   1.275       .  A
O130       Cd134   2.088       .  S
O131        C142   1.276       .  A
O131       Cd134   2.080       .  S
Zn132       O143   1.999       .  S
Zn132       O145   2.024       .  S
Zn132       O137   1.945       .  S
O133        C144   1.277       .  A
O133       Cd138   2.096       .  S
Cd134       O136   2.068       .  S
Cd134       O137   2.010       .  S
Cd135       O139   2.070       .  S
Cd135       O148   2.083       .  S
Cd135       O137   2.013       .  S
O136        C146   1.274       .  A
O137       Cd138   2.012       .  S
Cd138       O140   2.096       .  S
O139        C146   1.275       .  A
C141        C158   1.503       .  S
C141        O145   1.275       .  A
C142        C201   1.488       .  S
C144        C374   1.485       .  S
C147        C542   1.500       .  S
C147        O148   1.278       .  A
C149        C150   1.416       .  A
C149        C154   1.408       .  A
C149        C163   1.443       .  S
C150        C151   1.406       .  A
C150        C155   1.504       .  S
C151        C152   1.402       .  A
C151        H170   1.085       .  S
C152        C153   1.410       .  A
C152        C164   1.443       .  S
C153        C154   1.405       .  A
C154        H169   1.085       .  S
C155        C156   1.407       .  A
C155        C160   1.416       .  A
C156        C157   1.411       .  A
C156        H171   1.084       .  S
C157        C158   1.419       .  A
C157        C161   1.443       .  S
C158        C159   1.408       .  A
C159        C160   1.401       .  A
C159        H172   1.085       .  S
C160        C162   1.446       .  S
C161        N165   1.157       .  T
C162        N166   1.157       .  T
C163        N168   1.157       .  T
C164        N167   1.157       .  T
C173        C174   1.408       .  A
C173        C178   1.406       .  A
C173        C187   1.442       .  S
C174        C175   1.402       .  A
C174        C179   1.491       .  S
C175        C176   1.399       .  A
C175        H194   1.085       .  S
C176        C177   1.422       .  A
C176        C188   1.446       .  S
C177        C178   1.411       .  A
C178        H193   1.084       .  S
C179        C180   1.403       .  A
C179        C184   1.413       .  A
C180        C181   1.402       .  A
C180        H823   1.085       .  S
C181        C182   1.412       .  A
C181        C813   1.444       .  S
C182        C183   1.403       .  A
C183        C184   1.404       .  A
C183        H196   1.085       .  S
C184        C186   1.444       .  S
C185        C809   1.444       .  S
C185        N189   1.157       .  T
C186        N190   1.157       .  T
C187        N192   1.157       .  T
C188        N819   1.158       .  T
N191        C816   1.158       .  T
H195        C808   1.084       .  S
C197        C198   1.409       .  A
C197        C202   1.403       .  A
C197        C211   1.443       .  S
C198        C199   1.404       .  A
C198        C203   1.490       .  S
C199        C200   1.401       .  A
C199        H218   1.085       .  S
C200        C201   1.415       .  A
C200        C212   1.445       .  S
C201        C202   1.409       .  A
C202        H217   1.084       .  S
C203        C204   1.404       .  A
C203        C208   1.412       .  A
C204        C205   1.403       .  A
C204        H219   1.085       .  S
C205        C206   1.413       .  A
C205        C209   1.443       .  S
C206        C207   1.406       .  A
C207        C208   1.401       .  A
C207        H220   1.085       .  S
C208        C210   1.445       .  S
C209        N213   1.157       .  T
C210        N214   1.157       .  T
C211        N216   1.157       .  T
C212        N215   1.157       .  T
C221        C222   1.410       .  A
C221        C226   1.408       .  A
C221        C235   1.444       .  S
C222        C223   1.403       .  A
C222        C227   1.495       .  S
C223        C224   1.401       .  A
C223        H242   1.085       .  S
C224        C225   1.419       .  A
C224        C236   1.444       .  S
C225        C226   1.413       .  A
C226        H241   1.084       .  S
C227        C228   1.407       .  A
C227        C232   1.413       .  A
C228        C229   1.404       .  A
C228        H871   1.085       .  S
C229        C230   1.409       .  A
C229        C861   1.442       .  S
C230        C231   1.404       .  A
C231        C232   1.402       .  A
C231        H244   1.085       .  S
C232        C234   1.444       .  S
C233        C857   1.441       .  S
C233        N237   1.156       .  T
C234        N238   1.157       .  T
C235        N240   1.157       .  T
C236        N239   1.157       .  T
H243        C856   1.085       .  S
C245        C246   1.414       .  A
C245        C250   1.404       .  A
C245        C259   1.444       .  S
C246        C247   1.405   1_545  A
C246        C251   1.495   1_545  S
C247        C248   1.403   1_565  A
C247        H266   1.084       .  S
C248        C249   1.413       .  A
C248        C260   1.444       .  S
C249        C250   1.403       .  A
C250        H265   1.084       .  S
C251        C252   1.404   1_565  A
C251        C256   1.412       .  A
C252        C253   1.401       .  A
C252        H267   1.085       .  S
C253        C254   1.416   1_545  A
C253        C257   1.445       .  S
C254        C255   1.409       .  A
C255        C256   1.407       .  A
C255        H268   1.084       .  S
C256        C258   1.443       .  S
C257        N261   1.157       .  T
C258        N262   1.157       .  T
C259        N264   1.157       .  T
C260        N263   1.157       .  T
C269        C270   1.411   1_655  A
C269        C274   1.408       .  A
C269        C283   1.443       .  S
C270        C271   1.404       .  A
C270        C275   1.494       .  S
C271        C272   1.401       .  A
C271        H290   1.085       .  S
C272        C273   1.415   1_455  A
C272        C284   1.445       .  S
C273        C274   1.408       .  A
C274        H289   1.084       .  S
C275        C276   1.406   1_455  A
C275        C280   1.412       .  A
C276        C277   1.405   1_655  A
C276        H291   1.084       .  S
C277        C278   1.409       .  A
C277        C281   1.444   1_455  S
C278        C279   1.404       .  A
C279        C280   1.402       .  A
C279        H292   1.084       .  S
C280        C282   1.444       .  S
C281        N285   1.157       .  T
C282        N286   1.157       .  T
C283        N288   1.157       .  T
C284        N287   1.157       .  T
C293        C294   1.411       .  A
C293        C298   1.411       .  A
C293        C935   1.443       .  S
C294        C295   1.402   1_565  A
C294        C299   1.492   1_565  S
C295        C296   1.397       .  A
C295        H314   1.086       .  S
C296        C297   1.414   1_545  A
C296        C308   1.445       .  S
C297        C298   1.411       .  A
C298        H941   1.085       .  S
C299        C300   1.401       .  A
C299        C304   1.412       .  A
C300        C301   1.398       .  A
C300        H315   1.085       .  S
C301        C302   1.414       .  A
C301        C305   1.445       .  S
C302        C303   1.406       .  A
C303        C304   1.411       .  A
C303        H316   1.084       .  S
C304        C934   1.443   1_545  S
C305        N309   1.157       .  T
C306        C932   1.443   1_564  S
C306        N310   1.157       .  T
C307        C921   1.442       .  S
C307        N312   1.157       .  T
C308        N311   1.157       .  T
H313        C926   1.085       .  S
C317        C318   1.415   1_455  A
C317        C322   1.396       .  A
C317        C331   1.446       .  S
C318        C319   1.404       .  A
C318        C323   1.491       .  S
C319        C320   1.406       .  A
C319        H338   1.084       .  S
C320        C321   1.417       .  A
C320        C332   1.444       .  S
C321        C322   1.403   1_655  A
C322        H337   1.085       .  S
C323        C324   1.403   1_655  A
C323        C328   1.413       .  A
C324        C325   1.399       .  A
C324        H339   1.085       .  S
C325        C326   1.413       .  A
C325        C329   1.444       .  S
C326        C327   1.403       .  A
C327        C328   1.403   1_455  A
C327        H340   1.085       .  S
C328        C330   1.444       .  S
C329        N961   1.157       .  T
C330        N334   1.157       .  T
C331        N336   1.157       .  T
C332        N963   1.158       .  T
N333        C957   1.157       .  T
N335        C960   1.158       .  T
C341        C342   1.419   1_545  A
C341        C346   1.409       .  A
C341        C355   1.444   1_545  S
C342        C343   1.404   1_565  A
C342        C347   1.503       .  S
C343        C344   1.403       .  A
C343        H362   1.085   1_545  S
C344        C345   1.412       .  A
C344        C356   1.443       .  S
C345        C346   1.402       .  A
C346        H361   1.083       .  S
C347        C348   1.411       .  A
C347        C352   1.412       .  A
C348        C349   1.411       .  A
C348        H363   1.085       .  S
C349        C350   1.410       .  A
C349        C353   1.441       .  S
C350        C351   1.409       .  A
C351        C352   1.400       .  A
C351        H364   1.083       .  S
C352        C354   1.445   1_565  S
C353        N357   1.157       .  T
C354        N358   1.157       .  T
C355        N360   1.157       .  T
C356        N359   1.157       .  T
C365        C366   1.416       .  A
C365        C370   1.412       .  A
C365        C379   1.443       .  S
C366        C367   1.403       .  A
C366        C371   1.501       .  S
C367        C368   1.399       .  A
C367        H386   1.085       .  S
C368        C369   1.414       .  A
C368        C380   1.444       .  S
C369        C370   1.405       .  A
C370        H385   1.084       .  S
C371        C372   1.408       .  A
C371        C376   1.416       .  A
C372        C373   1.411       .  A
C372        H387   1.084       .  S
C373        C374   1.412       .  A
C373        C377   1.443       .  S
C374        C375   1.401       .  A
C375        C376   1.402       .  A
C375        H388   1.085       .  S
C376        C378   1.445       .  S
C377        N381   1.157       .  T
C378        N382   1.157       .  T
C379        N384   1.157       .  T
C380        N383   1.157       .  T
C389        C390   1.411       .  A
C389        C394   1.400       .  A
C389        C403   1.444       .  S
C390        C391   1.403       .  A
C390        C395   1.493       .  S
C391        C392   1.408       .  A
C391        H410   1.085       .  S
C392        C393   1.422       .  A
C392        C404   1.444       .  S
C393        C394   1.408       .  A
C394        H409   1.084       .  S
C395        C396   1.404       .  A
C395        C400   1.412       .  A
C396        C397   1.404       .  A
C396        H411   1.084       .  S
C397        C398   1.411       .  A
C397        C401   1.443       .  S
C398        C399   1.405       .  A
C399        C400   1.405       .  A
C399        H412   1.084       .  S
C400        C402   1.444       .  S
C401        N405   1.157       .  T
C402        N406   1.157       .  T
C403        N408   1.157       .  T
C404        N407   1.158   1_565  T
C413        C414   1.417       .  A
C413        C418   1.404       .  A
C413        C427   1.444       .  S
C414        C415   1.408       .  A
C414        C419   1.504       .  S
C415        C416   1.405       .  A
C415       H1062   1.084       .  S
C416        C417   1.411       .  A
C416       C1056   1.441       .  S
C417        C418   1.404       .  A
C418        H433   1.084       .  S
C419        C420   1.407       .  A
C419       C1052   1.417   1_565  A
C420        C421   1.403   1_565  A
C420        H435   1.084       .  S
C421        C422   1.411       .  A
C421        C425   1.441       .  S
C422        C423   1.404       .  A
C423       C1052   1.407       .  A
C423       H1064   1.083       .  S
C424       C1047   1.416   1_545  A
C424       C1051   1.409       .  A
C424        C426   1.443   1_556  S
C425        N429   1.157       .  T
C426        N430   1.157       .  T
C427        N432   1.157   1_565  T
C428       C1044   1.440   1_554  S
C428        N431   1.157       .  T
H434       C1043   1.084   1_554  S
H436       C1051   1.084   1_554  S
C437        C438   1.411       .  A
C437        C442   1.398       .  A
C437       C1079   1.445       .  S
C438        C439   1.408       .  A
C438        C443   1.491       .  S
C439        C440   1.405       .  A
C439        H458   1.085       .  S
C440        C441   1.408       .  A
C440        C452   1.444       .  S
C441        C442   1.403       .  A
C442       H1085   1.085       .  S
C443        C444   1.404       .  A
C443        C448   1.411       .  A
C444        C445   1.408       .  A
C444        H459   1.085       .  S
C445        C446   1.421       .  A
C445        C449   1.443       .  S
C446        C447   1.409       .  A
C447        C448   1.397       .  A
C447       H1088   1.084       .  S
C448       C1078   1.446       .  S
C449        N453   1.157       .  T
C450       C1076   1.445       .  S
C450        N454   1.157       .  T
C451       C1065   1.444   1_554  S
C451        N456   1.157       .  T
C452        N455   1.157       .  T
H457       C1070   1.086       .  S
H460       C1075   1.085       .  S
C461        C462   1.411       .  A
C461        C466   1.401       .  A
C461        C475   1.443       .  S
C462        C463   1.402       .  A
C462        C467   1.487       .  S
C463        C464   1.401       .  A
C463        H482   1.084       .  S
C464        C465   1.412       .  A
C464        C476   1.445       .  S
C465        C466   1.403       .  A
C466        H481   1.084       .  S
C467        C468   1.400       .  A
C467        C472   1.412       .  A
C468        C469   1.404       .  A
C468       H1111   1.085       .  S
C469        C470   1.422       .  A
C469       C1101   1.444   1_565  S
C470        C471   1.408       .  A
C471        C472   1.399       .  A
C471        H484   1.085       .  S
C472        C474   1.446       .  S
C473       C1097   1.442   1_554  S
C473        N477   1.157   1_565  T
C474        N478   1.157       .  T
C475        N480   1.157       .  T
C476       N1107   1.157       .  T
N479       C1104   1.157       .  T
H483       C1096   1.085       .  S
C485        C486   1.411       .  A
C485        C490   1.406       .  A
C485        C499   1.444       .  S
C486        C487   1.405       .  A
C486        C491   1.497       .  S
C487        C488   1.406       .  A
C487        H506   1.085       .  S
C488        C489   1.415       .  A
C488        C500   1.440       .  S
C489        C490   1.409       .  A
C490        H505   1.084       .  S
C491        C492   1.401   1_655  A
C491        C496   1.414       .  A
C492        C493   1.402       .  A
C492        H507   1.085       .  S
C493        C494   1.418       .  A
C493        C497   1.442       .  S
C494        C495   1.406       .  A
C495        C496   1.408   1_455  A
C495        H508   1.081       .  S
C496        C498   1.443       .  S
C497        N501   1.157       .  T
C498        N502   1.157       .  T
C499        N504   1.157   1_655  T
C500        N503   1.157       .  T
C509        C510   1.412       .  A
C509        C514   1.400       .  A
C509        C523   1.445       .  S
C510        C511   1.405       .  A
C510        C515   1.494       .  S
C511        C512   1.407       .  A
C511        H530   1.085       .  S
C512        C513   1.413       .  A
C512        C524   1.441       .  S
C513        C514   1.406       .  A
C514        H529   1.084       .  S
C515        C516   1.402       .  A
C515        C520   1.410       .  A
C516        C517   1.402       .  A
C516        H531   1.085       .  S
C517        C518   1.421       .  A
C517        C521   1.445       .  S
C518        C519   1.410       .  A
C519        C520   1.406       .  A
C519        H532   1.085   1_655  S
C520        C522   1.443   1_655  S
C521        N525   1.158       .  T
C522        N526   1.157       .  T
C523        N528   1.157       .  T
C524        N527   1.156       .  T
C533        C534   1.413       .  A
C533        C538   1.408       .  A
C533        C547   1.442       .  S
C534        C535   1.400       .  A
C534        C539   1.491       .  S
C535        C536   1.398       .  A
C535        H554   1.085       .  S
C536        C537   1.415       .  A
C536        C548   1.446       .  S
C537        C538   1.404       .  A
C538        H553   1.084       .  S
C539        C540   1.402       .  A
C539        C544   1.411       .  A
C540        C541   1.407       .  A
C540        H555   1.085       .  S
C541        C542   1.421       .  A
C541        C545   1.443       .  S
C542        C543   1.409       .  A
C543        C544   1.402       .  A
C543        H556   1.085       .  S
C544        C546   1.444       .  S
C545        N549   1.157       .  T
C546        N550   1.157       .  T
C547        N552   1.157       .  T
C548        N551   1.157       .  T
C557        C558   1.414       .  A
C557        C562   1.404   1_655  A
C557        C571   1.443       .  S
C558        C559   1.406   1_655  A
C558        C563   1.498       .  S
C559        C560   1.402       .  A
C559       H1206   1.090       .  S
C560        C561   1.414       .  A
C560        C572   1.442       .  S
C561        C562   1.405       .  A
C562        H577   1.091       .  S
C563        C564   1.404       .  A
C563       C1196   1.417       .  A
C564        C565   1.400       .  A
C564        H579   1.084       .  S
C565        C566   1.411       .  A
C565        C569   1.442       .  S
C566       C1195   1.405       .  A
C567        C568   1.402       .  A
C567       C1194   1.410       .  A
C567        H580   1.083       .  S
C568       C1191   1.411       .  A
C568        C570   1.444       .  S
C569        N573   1.157       .  T
C570        N574   1.157   1_655  T
C571        N576   1.158       .  T
C572       N1203   1.157       .  T
N575       C1200   1.157       .  T
H578       C1187   1.087       .  S
C581        C586   1.400       .  A
C581       C1210   1.410       .  A
C581        C595   1.445       .  S
C582        C583   1.406       .  A
C582       C1209   1.413       .  A
C582        C587   1.495       .  S
C583        C584   1.407       .  A
C583        H602   1.085       .  S
C584        C585   1.410       .  A
C584        C596   1.443       .  S
C585       C1214   1.404       .  A
C585        C633   1.481       .  S
C586       C1213   1.408       .  A
C586        H601   1.085       .  S
C587        C588   1.404       .  A
C587       C1220   1.411       .  A
C588        C589   1.400       .  A
C588        H603   1.085       .  S
C589        C590   1.415       .  A
C589        C593   1.444       .  S
C590       C1219   1.409       .  A
C591        C592   1.408       .  A
C591       C1218   1.411       .  A
C591        H604   1.084   1_655  S
C592       C1215   1.408   1_556  A
C592        C594   1.443   1_655  S
C593        N597   1.157       .  T
C594        N598   1.157       .  T
C595        N600   1.157       .  T
C596        N599   1.157       .  T
C605        C606   1.411       .  A
C605        C610   1.403       .  A
C605        C619   1.445       .  S
C606        C607   1.401       .  A
C606        C611   1.492       .  S
C607        C608   1.408       .  A
C607        H626   1.085       .  S
C608        C609   1.424       .  A
C608        C620   1.443       .  S
C609        C610   1.409       .  A
C610        H625   1.084       .  S
C611        C612   1.399       .  A
C611       C1244   1.413       .  A
C612        C613   1.399       .  A
C612        H627   1.085       .  S
C613        C614   1.415       .  A
C613        C617   1.443       .  S
C614       C1243   1.405       .  A
C614        C630   1.486       .  S
C615        C616   1.407       .  A
C615       C1242   1.403       .  A
C615        H628   1.085       .  S
C616       C1239   1.413       .  A
C616        C618   1.443       .  S
C617        N621   1.156       .  T
C618        N622   1.157       .  T
C619        N624   1.157       .  T
C620        N623   1.157       .  T
N629       C1194   1.455       .  S
C630        C631   1.382       .  A
C631        C632   1.366       .  A
C631        H634   1.082       .  S
C632        C633   1.379       .  A
C632        H635   1.082       .  S
N636       C1117   1.449       .  S
N636        C640   1.360       .  A
N636        C637   1.365       .  A
C637        C638   1.383       .  A
C637       C1165   1.485       .  S
C638        C639   1.366       .  A
C638        H641   1.083       .  S
C639        C640   1.379       .  A
C639        H642   1.082       .  S
C640       C1141   1.478       .  S
N643       C1045   1.453       .  S
N643        C647   1.363       .  A
N643        C644   1.364       .  A
C644        C645   1.381       .  A
C644       C1069   1.475       .  S
C645        C646   1.363       .  A
C645        H648   1.083       .  S
C646        C647   1.378       .  A
C646        H649   1.082       .  S
C647       C1093   1.481       .  S
N650        C978   1.454       .  S
N650        C654   1.365       .  A
N650        C651   1.366       .  A
C651        C652   1.379       .  A
C651       C1026   1.481       .  S
C652        C653   1.364       .  A
C652        H655   1.083       .  S
C653        C654   1.379       .  A
C653        H656   1.082       .  S
C654        C997   1.482       .  S
O657        C673   1.275       .  A
O657       Zn663   2.016       .  S
C658        C681   1.472       .  S
C658        O674   1.275       .  A
C658        O671   1.278   1_565  A
O659        C672   1.276   1_455  A
O660        C678   1.277   1_545  A
O660       Cd669   2.082   1_455  S
O661        C675   1.274   1_554  A
O662        C673   1.275       .  A
Zn663       O674   2.019       .  S
Zn663       O676   2.026       .  S
Zn663       O668   1.944       .  S
O664        C675   1.279       .  A
O664       Cd669   2.100       .  S
Cd665       O667   2.070   1_545  S
Cd666       O670   2.059       .  S
O667        C677   1.275       .  A
O668       Cd669   2.007   1_565  S
Cd669       O671   2.085       .  S
O670        C677   1.274   1_455  A
C672        C949   1.489       .  S
C672        O676   1.274       .  A
C673       C1098   1.497       .  S
C675       C1218   1.499       .  S
C677        C700   1.464       .  S
C678        C925   1.492       .  S
C678        O679   1.276       .  A
O680        C696   1.279       .  A
O680       Zn686   2.058       .  S
C681        O697   1.278       .  A
C681        O694   1.276   1_565  A
O682        C695   1.274       .  A
O682       Cd689   2.065   1_565  S
O683        C701   1.277       .  A
O683       Cd692   2.096   1_655  S
O684        C698   1.276       .  A
O684       Cd688   2.075       .  S
O685        C696   1.275   1_455  A
O685       Cd688   2.077       .  S
Zn686       O697   2.035       .  S
Zn686       O699   2.038       .  S
Zn686       O691   1.954       .  S
O687        C698   1.275   1_545  A
O687       Cd692   2.070       .  S
Cd688       O690   2.065       .  S
Cd688       O691   2.000   1_455  S
Cd689       O693   2.062   1_545  S
Cd689       O702   2.067       .  S
Cd689       O691   1.996   1_545  S
O690        C700   1.274   1_455  A
O691       Cd692   2.009   1_665  S
Cd692       O694   2.073   1_455  S
O693        C700   1.273       .  A
C695       C1021   1.496       .  S
C695        O699   1.277       .  A
C696        C901   1.505       .  S
C698        C882   1.491       .  S
C701       C1146   1.502       .  S
C701        O702   1.273       .  A
N703       C1189   1.447       .  S
N703        C707   1.366       .  A
N703        C704   1.365       .  A
C704        C705   1.380       .  A
C704        C954   1.483       .  S
C705        C706   1.364       .  A
C705        H708   1.083       .  S
C706        C707   1.381       .  A
C706        H709   1.082       .  S
C707        C858   1.489       .  S
N710       C1122   1.454       .  S
N710        C714   1.363       .  A
N710        C711   1.366       .  A
C711        C712   1.382       .  A
C711        C834   1.488       .  S
C712        C713   1.363       .  A
C712        H715   1.082       .  S
C713        C714   1.380       .  A
C713        H716   1.083       .  S
C714        C906   1.480       .  S
N717       C1050   1.446       .  S
N717        C721   1.359       .  A
N717        C718   1.364       .  A
C718        C719   1.382       .  A
C718        C930   1.482       .  S
C719        C720   1.364       .  A
C719        H722   1.083       .  S
C720        C721   1.379       .  A
C720        H723   1.083       .  S
C721        C810   1.475       .  S
N724        C973   1.443       .  S
N724        C728   1.358       .  A
N724        C725   1.358       .  A
C725        C726   1.382       .  A
C725        C877   1.480       .  S
C726        C727   1.367       .  A
C726        H729   1.082       .  S
C727        C728   1.381       .  A
C727        H730   1.083       .  S
C728        C781   1.476       .  S
O731        C747   1.276       .  A
O731       Zn737   2.031       .  S
C732        C805   1.500       .  S
C732        O748   1.275       .  A
C732        O745   1.277   1_556  A
O733        C746   1.278   1_554  A
O734        C752   1.276       .  A
O734       Cd743   2.080       .  S
O735        C749   1.276       .  A
O735       Cd739   2.086       .  S
O736        C747   1.274       .  A
O736       Cd739   2.070       .  S
Zn737       O748   2.017       .  S
Zn737       O750   2.048       .  S
Zn737       O742   1.946       .  S
O738       Cd743   2.099       .  S
Cd739       O741   2.077       .  S
Cd739       O742   2.003       .  S
Cd740       O753   2.082       .  S
O741        C751   1.277       .  A
O744        C751   1.276       .  A
C746        C853   1.502       .  S
C746        O750   1.277       .  A
C747        C774   1.462       .  S
C749       C1237   1.490   1_556  S
C751       C1074   1.490       .  S
C752        C755   1.464       .  S
C752        O753   1.277       .  A
O754        C770   1.275       .  A
O754       Zn760   2.024       .  S
C755        O771   1.275       .  A
C755        O768   1.274       .  A
O756        C769   1.276       .  A
O756       Cd763   2.086       .  S
O757        C775   1.275       .  A
O757       Cd766   2.076       .  S
O758        C772   1.277       .  A
O758       Cd762   2.089       .  S
O759        C770   1.274       .  A
O759       Cd762   2.075       .  S
Zn760       O771   2.031       .  S
Zn760       O773   2.020       .  S
Zn760       O765   1.949       .  S
O761        C772   1.277       .  A
O761       Cd766   2.076       .  S
Cd762       O764   2.070       .  S
Cd762       O765   2.008       .  S
Cd763       O767   2.084       .  S
Cd763       O776   2.095       .  S
Cd763       O765   2.012       .  S
O764        C774   1.274       .  A
O765       Cd766   2.001       .  S
Cd766       O768   2.076       .  S
O767        C774   1.276       .  A
C769        C786   1.499       .  S
C769        O773   1.276       .  A
C770        C829   1.497       .  S
C772       C1002   1.487       .  S
C775       C1170   1.500       .  S
C775        O776   1.279       .  A
C777        C778   1.410       .  A
C777        C782   1.403       .  A
C777        C791   1.443       .  S
C778        C779   1.402       .  A
C778        C783   1.485       .  S
C779        C780   1.400       .  A
C779        H798   1.085       .  S
C780        C781   1.410       .  A
C780        C792   1.443       .  S
C781        C782   1.404       .  A
C782        H797   1.085       .  S
C783        C784   1.400       .  A
C783        C788   1.409       .  A
C784        C785   1.407       .  A
C784        H799   1.084       .  S
C785        C786   1.422       .  A
C785        C789   1.443       .  S
C786        C787   1.409       .  A
C787        C788   1.398       .  A
C787        H800   1.084       .  S
C788        C790   1.446       .  S
C789        N793   1.157       .  T
C790        N794   1.157       .  T
C791        N796   1.157       .  T
C792        N795   1.157       .  T
C801        C802   1.412   1_554  A
C801        C806   1.407       .  A
C801        C815   1.444       .  S
C802        C803   1.403       .  A
C802        C807   1.496       .  S
C803        C804   1.398       .  A
C803        H822   1.085       .  S
C804        C805   1.420       .  A
C804        C816   1.445       .  S
C805        C806   1.411   1_556  A
C806        H821   1.084       .  S
C807        C808   1.406   1_556  A
C807        C812   1.417       .  A
C808        C809   1.400       .  A
C809        C810   1.409   1_554  A
C810        C811   1.401       .  A
C811        C812   1.403       .  A
C811        H824   1.085       .  S
C812        C814   1.445       .  S
C813        N817   1.157       .  T
C814        N818   1.157       .  T
C815        N820   1.157       .  T
C825        C826   1.409       .  A
C825        C830   1.401       .  A
C825        C839   1.444       .  S
C826        C827   1.404       .  A
C826        C831   1.492       .  S
C827        C828   1.403       .  A
C827        H846   1.085       .  S
C828        C829   1.419       .  A
C828        C840   1.444       .  S
C829        C830   1.410       .  A
C830        H845   1.084       .  S
C831        C832   1.406       .  A
C831        C836   1.413       .  A
C832        C833   1.406       .  A
C832        H847   1.085       .  S
C833        C834   1.412       .  A
C833        C837   1.443       .  S
C834        C835   1.406       .  A
C835        C836   1.398       .  A
C835        H848   1.085       .  S
C836        C838   1.446       .  S
C837        N841   1.157       .  T
C838        N842   1.158       .  T
C839        N844   1.157       .  T
C840        N843   1.158       .  T
C849        C850   1.412       .  A
C849        C854   1.411       .  A
C849        C863   1.444       .  S
C850        C851   1.402       .  A
C850        C855   1.498       .  S
C851        C852   1.400   1_556  A
C851        H870   1.085   1_556  S
C852        C853   1.418   1_554  A
C852        C864   1.444       .  S
C853        C854   1.413       .  A
C854        H869   1.084       .  S
C855        C856   1.407   1_556  A
C855        C860   1.413       .  A
C856        C857   1.406       .  A
C857        C858   1.412   1_554  A
C858        C859   1.407       .  A
C859        C860   1.404       .  A
C859        H872   1.085       .  S
C860        C862   1.444       .  S
C861        N865   1.156       .  T
C862        N866   1.157       .  T
C863        N868   1.157       .  T
C864        N867   1.157       .  T
C873        C874   1.413       .  A
C873        C878   1.402       .  A
C873        C887   1.444       .  S
C874        C875   1.405       .  A
C874        C879   1.490       .  S
C875        C876   1.400       .  A
C875        H894   1.084       .  S
C876        C877   1.411       .  A
C876        C888   1.444       .  S
C877        C878   1.403       .  A
C878        H893   1.082       .  S
C879        C880   1.403       .  A
C879        C884   1.410   1_545  A
C880        C881   1.399       .  A
C880        H895   1.085       .  S
C881        C882   1.418   1_545  A
C881        C885   1.445       .  S
C882        C883   1.409       .  A
C883        C884   1.403       .  A
C883        H896   1.084       .  S
C884        C886   1.443       .  S
C885        N889   1.158       .  T
C886        N890   1.157       .  T
C887        N892   1.157       .  T
C888        N891   1.157       .  T
C897        C898   1.409       .  A
C897        C902   1.408       .  A
C897        C911   1.443       .  S
C898        C899   1.402   1_655  A
C898        C903   1.495   1_655  S
C899        C900   1.402       .  A
C899        H918   1.086       .  S
C900        C901   1.422   1_455  A
C900        C912   1.445       .  S
C901        C902   1.412       .  A
C902        H917   1.084       .  S
C903        C904   1.407   1_455  A
C903        C908   1.413       .  A
C904        C905   1.404   1_655  A
C904        H919   1.084       .  S
C905        C906   1.408       .  A
C905        C909   1.443   1_455  S
C906        C907   1.405       .  A
C907        C908   1.404       .  A
C907        H920   1.085       .  S
C908        C910   1.444       .  S
C909        N913   1.157       .  T
C910        N914   1.157       .  T
C911        N916   1.157       .  T
C912        N915   1.158       .  T
C921        C922   1.409       .  A
C921        C926   1.407       .  A
C922        C923   1.404   1_565  A
C922        C927   1.491   1_565  S
C923        C924   1.400       .  A
C923        H942   1.086       .  S
C924        C925   1.416   1_545  A
C924        C936   1.445       .  S
C925        C926   1.410       .  A
C927        C928   1.400       .  A
C927        C932   1.413       .  A
C928        C929   1.398       .  A
C928        H943   1.085       .  S
C929        C930   1.414       .  A
C929        C933   1.444       .  S
C930        C931   1.406       .  A
C931        C932   1.409       .  A
C931        H944   1.085   1_556  S
C933        N937   1.157       .  T
C934        N938   1.157       .  T
C935        N940   1.157       .  T
C936        N939   1.158       .  T
C945        C946   1.414   1_455  A
C945        C950   1.398       .  A
C945        C959   1.445       .  S
C946        C947   1.404       .  A
C946        C951   1.494       .  S
C947        C948   1.407       .  A
C947        H966   1.085       .  S
C948        C949   1.418       .  A
C948        C960   1.444       .  S
C949        C950   1.403   1_655  A
C950        H965   1.085       .  S
C951        C952   1.403   1_656  A
C951        C956   1.411       .  A
C952        C953   1.402       .  A
C952        H967   1.085       .  S
C953        C954   1.413   1_554  A
C953        C957   1.441       .  S
C954        C955   1.407       .  A
C955        C956   1.404   1_455  A
C955        H968   1.085       .  S
C956        C958   1.444       .  S
C958        N962   1.157       .  T
C959        N964   1.157       .  T
C969        C970   1.419   1_545  A
C969        C974   1.407       .  A
C969        C983   1.444   1_545  S
C970        C971   1.406   1_565  A
C970        C975   1.503       .  S
C971        C972   1.401       .  A
C971        H990   1.084   1_545  S
C972        C973   1.410       .  A
C972        C984   1.443       .  S
C973        C974   1.401       .  A
C974        H989   1.082       .  S
C975        C976   1.407       .  A
C975        C980   1.413       .  A
C976        C977   1.408       .  A
C976        H991   1.085       .  S
C977        C978   1.414       .  A
C977        C981   1.439       .  S
C978        C979   1.409       .  A
C979        C980   1.402       .  A
C979        H992   1.083       .  S
C980        C982   1.444   1_565  S
C981        N985   1.157       .  T
C982        N986   1.157       .  T
C983        N988   1.157       .  T
C984        N987   1.157       .  T
C993        C994   1.416       .  A
C993        C998   1.407       .  A
C993       C1007   1.443       .  S
C994        C995   1.406       .  A
C994        C999   1.503       .  S
C995        C996   1.399       .  A
C995       H1014   1.085       .  S
C996        C997   1.412       .  A
C996       C1008   1.445       .  S
C997        C998   1.404       .  A
C998       H1013   1.083       .  S
C999       C1000   1.409       .  A
C999       C1004   1.418       .  A
C1000      C1001   1.409       .  A
C1000      H1015   1.084       .  S
C1001      C1002   1.414       .  A
C1001      C1005   1.444       .  S
C1002      C1003   1.401       .  A
C1003      C1004   1.398       .  A
C1003      H1016   1.085       .  S
C1004      C1006   1.445       .  S
C1005      N1009   1.157       .  T
C1006      N1010   1.157       .  T
C1007      N1012   1.157       .  T
C1008      N1011   1.157       .  T
C1017      C1018   1.410       .  A
C1017      C1022   1.401       .  A
C1017      C1031   1.444       .  S
C1018      C1019   1.400       .  A
C1018      C1023   1.487       .  S
C1019      C1020   1.404       .  A
C1019      H1038   1.085       .  S
C1020      C1021   1.422       .  A
C1020      C1032   1.444       .  S
C1021      C1022   1.408       .  A
C1022      H1037   1.084       .  S
C1023      C1024   1.403       .  A
C1023      C1028   1.409       .  A
C1024      C1025   1.403       .  A
C1024      H1039   1.085       .  S
C1025      C1026   1.412       .  A
C1025      C1029   1.443       .  S
C1026      C1027   1.405       .  A
C1027      C1028   1.403       .  A
C1027      H1040   1.083       .  S
C1028      C1030   1.444       .  S
C1029      N1033   1.157       .  T
C1030      N1034   1.157       .  T
C1031      N1036   1.157       .  T
C1032      N1035   1.157   1_565  T
C1041      C1042   1.413       .  A
C1041      C1046   1.402       .  A
C1041      C1055   1.443       .  S
C1042      C1043   1.406       .  A
C1042      C1047   1.503       .  S
C1043      C1044   1.408       .  A
C1044      C1045   1.415       .  A
C1045      C1046   1.408       .  A
C1046      H1061   1.084       .  S
C1047      C1048   1.406   1_565  A
C1048      C1049   1.402       .  A
C1048      H1063   1.084   1_545  S
C1049      C1050   1.409       .  A
C1049      C1053   1.441       .  S
C1050      C1051   1.405       .  A
C1052      C1054   1.443       .  S
C1053      N1057   1.157       .  T
C1054      N1058   1.157       .  T
C1055      N1060   1.157   1_565  T
C1056      N1059   1.157       .  T
C1065      C1066   1.411       .  A
C1065      C1070   1.397       .  A
C1066      C1067   1.407       .  A
C1066      C1071   1.489       .  S
C1067      C1068   1.405       .  A
C1067      H1086   1.084       .  S
C1068      C1069   1.407       .  A
C1068      C1080   1.442       .  S
C1069      C1070   1.403       .  A
C1071      C1072   1.403       .  A
C1071      C1076   1.412       .  A
C1072      C1073   1.404       .  A
C1072      H1087   1.085   1_556  S
C1073      C1074   1.417       .  A
C1073      C1077   1.444   1_556  S
C1074      C1075   1.407       .  A
C1075      C1076   1.401       .  A
C1077      N1081   1.157       .  T
C1078      N1082   1.157       .  T
C1079      N1084   1.157       .  T
C1080      N1083   1.157       .  T
C1089      C1090   1.411       .  A
C1089      C1094   1.398       .  A
C1089      C1103   1.444       .  S
C1090      C1091   1.404       .  A
C1090      C1095   1.489       .  S
C1091      C1092   1.404       .  A
C1091      H1110   1.085   1_556  S
C1092      C1093   1.412       .  A
C1092      C1104   1.443   1_556  S
C1093      C1094   1.403       .  A
C1094      H1109   1.084       .  S
C1095      C1096   1.401       .  A
C1095      C1100   1.411       .  A
C1096      C1097   1.405       .  A
C1097      C1098   1.420       .  A
C1098      C1099   1.409       .  A
C1099      C1100   1.398       .  A
C1099      H1112   1.084       .  S
C1100      C1102   1.445       .  S
C1101      N1105   1.157       .  T
C1102      N1106   1.157       .  T
C1103      N1108   1.157       .  T
C1113      C1114   1.412       .  A
C1113      C1118   1.409       .  A
C1113      C1127   1.443       .  S
C1114      C1115   1.403       .  A
C1114      C1119   1.496       .  S
C1115      C1116   1.402       .  A
C1115      H1134   1.085       .  S
C1116      C1117   1.414       .  A
C1116      C1128   1.443       .  S
C1117      C1118   1.407       .  A
C1118      H1133   1.083       .  S
C1119      C1120   1.400   1_655  A
C1119      C1124   1.412       .  A
C1120      C1121   1.401       .  A
C1120      H1135   1.085       .  S
C1121      C1122   1.419       .  A
C1121      C1125   1.441       .  S
C1122      C1123   1.408       .  A
C1123      C1124   1.409   1_455  A
C1123      H1136   1.083       .  S
C1124      C1126   1.443       .  S
C1125      N1129   1.157       .  T
C1126      N1130   1.157       .  T
C1127      N1132   1.157       .  T
C1128      N1131   1.157       .  T
C1137      C1138   1.412       .  A
C1137      C1142   1.403       .  A
C1137      C1151   1.444       .  S
C1138      C1139   1.406       .  A
C1138      C1143   1.490       .  S
C1139      C1140   1.403       .  A
C1139      H1158   1.084       .  S
C1140      C1141   1.408       .  A
C1140      C1152   1.444       .  S
C1141      C1142   1.404       .  A
C1142      H1157   1.085       .  S
C1143      C1144   1.399       .  A
C1143      C1148   1.408       .  A
C1144      C1145   1.398       .  A
C1144      H1159   1.086       .  S
C1145      C1146   1.422       .  A
C1145      C1149   1.445       .  S
C1146      C1147   1.414       .  A
C1147      C1148   1.409       .  A
C1147      H1160   1.084   1_655  S
C1148      C1150   1.443   1_655  S
C1149      N1153   1.158       .  T
C1150      N1154   1.157       .  T
C1151      N1156   1.157       .  T
C1152      N1155   1.157       .  T
C1161      C1162   1.413       .  A
C1161      C1166   1.406       .  A
C1161      C1175   1.443       .  S
C1162      C1163   1.402       .  A
C1162      C1167   1.493       .  S
C1163      C1164   1.401       .  A
C1163      H1182   1.085       .  S
C1164      C1165   1.415       .  A
C1164      C1176   1.445       .  S
C1165      C1166   1.404       .  A
C1166      H1181   1.085       .  S
C1167      C1168   1.402       .  A
C1167      C1172   1.412       .  A
C1168      C1169   1.406       .  A
C1168      H1183   1.085       .  S
C1169      C1170   1.421       .  A
C1169      C1173   1.444       .  S
C1170      C1171   1.408       .  A
C1171      C1172   1.403       .  A
C1171      H1184   1.084       .  S
C1172      C1174   1.444       .  S
C1173      N1177   1.157       .  T
C1174      N1178   1.157       .  T
C1175      N1180   1.157       .  T
C1176      N1179   1.157       .  T
C1185      C1186   1.416   1_554  A
C1185      C1190   1.407   1_655  A
C1185      C1199   1.445       .  S
C1186      C1187   1.404       .  A
C1186      C1191   1.499   1_556  S
C1187      C1188   1.403   1_655  A
C1188      C1189   1.411       .  A
C1188      C1200   1.442       .  S
C1189      C1190   1.404   1_556  A
C1190      H1205   1.086       .  S
C1191      C1192   1.406   1_554  A
C1192      C1193   1.408       .  A
C1192      H1207   1.084       .  S
C1193      C1194   1.416   1_556  A
C1193      C1197   1.440       .  S
C1195      C1196   1.409       .  A
C1195      H1208   1.083       .  S
C1196      C1198   1.444       .  S
C1197      N1201   1.157       .  T
C1198      N1202   1.157       .  T
C1199      N1204   1.158       .  T
C1209      C1214   1.402       .  A
C1209      C1223   1.445       .  S
C1210      C1211   1.403   1_554  A
C1210      C1215   1.489       .  S
C1211      C1212   1.406   1_556  A
C1211      H1230   1.085       .  S
C1212      C1213   1.415       .  A
C1212      C1224   1.441   1_554  S
C1214      H1229   1.085       .  S
C1215      C1216   1.400       .  A
C1216      C1217   1.399       .  A
C1216      H1231   1.086       .  S
C1217      C1218   1.421   1_554  A
C1217      C1221   1.444       .  S
C1219      C1220   1.408       .  A
C1219      H1232   1.085   1_655  S
C1220      C1222   1.442   1_655  S
C1221      N1225   1.157       .  T
C1222      N1226   1.157       .  T
C1223      N1228   1.157       .  T
C1224      N1227   1.157       .  T
C1233      C1234   1.412       .  A
C1233      C1238   1.402       .  A
C1233      C1247   1.445       .  S
C1234      C1235   1.404   1_554  A
C1234      C1239   1.490       .  S
C1235      C1236   1.405       .  A
C1235      H1254   1.085       .  S
C1236      C1237   1.416   1_556  A
C1236      C1248   1.444       .  S
C1237      C1238   1.407       .  A
C1238      H1253   1.085       .  S
C1239      C1240   1.401       .  A
C1240      C1241   1.398       .  A
C1240      H1255   1.085   1_554  S
C1241      C1242   1.414       .  A
C1241      C1245   1.445   1_554  S
C1243      C1244   1.408       .  A
C1243      H1256   1.084       .  S
C1244      C1246   1.443       .  S
C1245      N1249   1.157       .  T
C1246      N1250   1.157       .  T
C1247      N1252   1.158       .  T
C1248      N1251   1.157       .  T
