geometry optimzed in LAMMPS
_audit_creation_date              2020-11-30 
_audit_creation_method            'lammps2cif' 
_symmetry_space_group_name_H-M    'P1' 
_symmetry_Int_Tables_number       1 
_symmetry_cell_setting            triclinic 
loop_ 
_symmetry_equiv_pos_as_xyz 
  x,y,z 
_cell_length_a                    46.47036102 
_cell_length_b                    46.641105545961246 
_cell_length_c                    42.76734601040713 
_cell_angle_alpha                 89.994665832431 
_cell_angle_beta                  89.94500779537547 
_cell_angle_gamma                 90.09350178554884 
loop_ 
_atom_site_label 
_atom_site_type_symbol 
_atom_site_fract_x 
_atom_site_fract_y 
_atom_site_fract_z 
_atom_site_charge 
O1          O  0.43383247  0.73678793  0.14928569    -0.55500
C2          C  0.34734018  0.71613439  0.15226068     0.77200
O3          O  0.37033458  0.80154816  0.18062827    -0.56600
C4          C  0.44896092  0.75892608  0.14414422     0.77100
C5          C  0.37363788  0.77331934  0.08174187     0.79500
Cd6        Cd  0.38757611  0.76194296  0.14600780     1.37500
O7          O  0.37414309  0.71103261  0.15122862    -0.55500
O8          O  0.38147519  0.74934194  0.09243717    -0.54300
C9          C  0.37782847  0.78884790  0.20564783     0.79500
O10         O  0.37259803  0.79399385  0.10111006    -0.56700
O11         O  0.33998767  0.74224581  0.15145863    -0.55100
O12         O  0.43536239  0.78205041  0.13951933    -0.55100
O13         O  0.39015889  0.76492364  0.20225765    -0.54300
O14         O  0.28308694  0.88353525  0.37980651    -0.55500
C15         C  0.26338338  0.79742579  0.37525544     0.77200
O16         O  0.34934592  0.81610958  0.35379056    -0.56600
C17         C  0.30511204  0.89885231  0.38515522     0.77100
C18         C  0.32234912  0.82485319  0.44893792     0.79500
Cd19       Cd  0.30936915  0.83755766  0.38441049     1.37500
O20         O  0.25819862  0.82408677  0.37722062    -0.55500
O21         O  0.29722791  0.82532985  0.43772860    -0.54300
C22         C  0.34095276  0.82633921  0.32784680     0.79500
O23         O  0.34273480  0.83014461  0.43001881    -0.56700
O24         O  0.28959671  0.79018830  0.37647836    -0.55100
O25         O  0.32822678  0.88551652  0.39069420    -0.55100
O26         O  0.31905206  0.84234136  0.32873288    -0.54300
O27         O  0.23977632  0.53977197  0.16009956    -0.55500
C28         C  0.26022602  0.62743039  0.15340657     0.77200
O29         O  0.18539611  0.59615938  0.10368900    -0.56600
C30         C  0.21698580  0.52504645  0.15664138     0.77100
C31         C  0.18616637  0.59716491  0.20895203     0.79500
Cd32       Cd  0.21548880  0.58558015  0.15130782     1.37500
O33         O  0.26582050  0.60103258  0.15707203    -0.55500
O34         O  0.21031830  0.58479681  0.20748235    -0.54300
C35         C  0.20411978  0.58546359  0.08535392     0.79500
O36         O  0.17486731  0.60439774  0.18302845    -0.56700
O37         O  0.23406618  0.63388881  0.14916686    -0.55100
O38         O  0.19398647  0.53881204  0.15155655    -0.55100
O39         O  0.22687112  0.57621069  0.09793968    -0.54300
O40         O  0.08825017  0.68802462  0.38062316    -0.55500
C41         C  0.17523471  0.70962205  0.37851382     0.77200
O42         O  0.14583015  0.63094956  0.43352561    -0.56600
C43         C  0.07321852  0.66592803  0.38638253     0.77100
C44         C  0.14636095  0.63397703  0.33026872     0.79500
Cd45       Cd  0.13498670  0.66365783  0.38790256     1.37500
O46         O  0.14855172  0.71483646  0.38140635    -0.55500
O47         O  0.13174620  0.65671319  0.33210151    -0.54300
C48         C  0.14770687  0.65160533  0.45278883     0.79500
O49         O  0.15539141  0.62374622  0.35600005    -0.56700
O50         O  0.18247281  0.68349190  0.37963995    -0.55100
O51         O  0.08698338  0.64352959  0.39371720    -0.55100
O52         O  0.14354197  0.67640196  0.44178733    -0.54300
O53         O  0.43009829  0.73153692  0.87776674    -0.55500
C54         C  0.34448144  0.70986282  0.87485999     0.77200
O55         O  0.37319312  0.79010467  0.92856427    -0.56600
C56         C  0.44528758  0.75385926  0.88158220     0.77100
C57         C  0.37007505  0.78518941  0.82593923     0.79500
Cd58       Cd  0.38346887  0.75659071  0.88347735     1.37500
O59         O  0.37113763  0.70540569  0.87899302    -0.55500
O60         O  0.38595302  0.76327932  0.82756923    -0.54300
C61         C  0.37126413  0.76970167  0.94812752     0.79500
O62         O  0.36091314  0.79511701  0.85176105    -0.56700
O63         O  0.33646862  0.73577679  0.87437791    -0.55100
O64         O  0.43165791  0.77687309  0.88665266    -0.55100
O65         O  0.37487006  0.74475906  0.93734760    -0.54300
O66         O  0.28023095  0.88343609  0.64764958    -0.55500
C67         C  0.25852759  0.79885799  0.65611199     0.77200
O68         O  0.34006343  0.82639808  0.60230550    -0.56600
C69         C  0.30321901  0.89796282  0.64547118     0.77100
C70         C  0.33235436  0.82474146  0.70449390     0.79500
Cd71       Cd  0.30528539  0.83682722  0.64580540     1.37500
O72         O  0.25405425  0.82518099  0.65040950    -0.55500
O73         O  0.30974310  0.83957578  0.70202824    -0.54300
C74         C  0.32026942  0.82327219  0.58216346     0.79500
O75         O  0.34369625  0.81634403  0.67904572    -0.56700
O76         O  0.28449461  0.79070918  0.65664554    -0.55100
O77         O  0.32633697  0.88387181  0.64308314    -0.55100
O78         O  0.29473070  0.82573508  0.59191109    -0.54300
O79         O  0.23772826  0.53674987  0.87136439    -0.55500
C80         C  0.25779105  0.62164773  0.87506156     0.77200
O81         O  0.16983954  0.60329945  0.85614605    -0.56600
C82         C  0.21550511  0.52106196  0.87360713     0.77100
C83         C  0.20233658  0.58257855  0.94998257     0.79500
Cd84       Cd  0.21196216  0.58134287  0.88315532     1.37500
O85         O  0.26270703  0.59495821  0.87549364    -0.55500
O86         O  0.22389944  0.57145052  0.93677916    -0.54300
C87         C  0.17800853  0.59512165  0.82920931     0.79500
O88         O  0.18390527  0.59400009  0.93196839    -0.56700
O89         O  0.23186399  0.62926731  0.87828601    -0.55100
O90         O  0.19206106  0.53357627  0.88012623    -0.55100
O91         O  0.20060624  0.58012599  0.82812049    -0.54300
O92         O  0.14445720  0.71665099  0.65494689    -0.55500
C93         C  0.07196592  0.66851698  0.64632044     0.77200
O94         O  0.14714595  0.63218813  0.60632197    -0.56600
C95         C  0.17080264  0.71235222  0.66102850     0.77100
C96         C  0.14058898  0.63724110  0.70958904     0.79500
Cd97       Cd  0.13294598  0.66551048  0.65039517     1.37500
O98         O  0.08684196  0.69077938  0.65153801    -0.55500
O99         O  0.12735462  0.66073828  0.70669477    -0.54300
C100        C  0.14871195  0.65243125  0.58651108     0.79500
O101        O  0.14977756  0.62591726  0.68445111    -0.56700
O102        O  0.08568033  0.64533315  0.64281127    -0.55100
O103        O  0.17886476  0.68648043  0.66285746    -0.55100
O104        O  0.14377622  0.67732716  0.59676218    -0.54300
O105        O  0.75923237  0.59888513  0.14817655    -0.55500
C106        C  0.80568317  0.52245377  0.14884005     0.77200
O107        O  0.84365499  0.60001630  0.10191957    -0.56600
C108        C  0.76436203  0.62524683  0.14356787     0.77100
C109        C  0.83836225  0.59520566  0.20387690     0.79500
Cd110      Cd  0.81043861  0.58373544  0.14506186     1.37500
O111        O  0.78351975  0.53824585  0.15069320    -0.55500
O112        O  0.81327338  0.58497342  0.20148964    -0.54300
C113        C  0.83005484  0.58557367  0.08153411     0.79500
O114        O  0.85145940  0.60012369  0.17835383    -0.56700
O115        O  0.82955315  0.53530588  0.14580861    -0.55100
O116        O  0.79051593  0.63187180  0.13962193    -0.55100
O117        O  0.80847518  0.57152564  0.09096472    -0.54300
O118        O  0.87291532  0.71413467  0.37894072    -0.55500
C119        C  0.94844243  0.66576121  0.38308561     0.77200
O120        O  0.87799955  0.63030438  0.42910045    -0.56600
C121        C  0.84637876  0.70889323  0.37463765     0.77100
C122        C  0.87620507  0.63347217  0.32543789     0.79500
Cd123      Cd  0.88678153  0.66323257  0.38310817     1.37500
O124        O  0.93362048  0.68787869  0.37695136    -0.55500
O125        O  0.89113005  0.65610101  0.32703570    -0.54300
C126        C  0.87450260  0.65093426  0.44811820     0.79500
O127        O  0.86666192  0.62366467  0.35118451    -0.56700
O128        O  0.93445782  0.64325329  0.38960627    -0.55100
O129        O  0.83922907  0.68270752  0.37325633    -0.55100
O130        O  0.87620889  0.67585917  0.43671717    -0.54300
O131        O  0.58818222  0.73437564  0.14831841    -0.55500
C132        C  0.67604530  0.71330020  0.14432196     0.77200
O133        O  0.64943752  0.79214449  0.09988545    -0.56600
C134        C  0.57355101  0.75724163  0.14563255     0.77100
C135        C  0.64455553  0.78642533  0.20408954     0.79500
Cd136      Cd  0.63471895  0.75927429  0.14436448     1.37500
O137        O  0.64951671  0.70820282  0.14861671    -0.55500
O138        O  0.63069790  0.76325986  0.20100199    -0.54300
C139        C  0.63584350  0.77713281  0.07991918     0.79500
O140        O  0.65359130  0.79790309  0.17895493    -0.56700
O141        O  0.68280953  0.73934378  0.14048427    -0.55100
O142        O  0.58762455  0.78043712  0.14342383    -0.55100
O143        O  0.62346968  0.75487457  0.09008667    -0.54300
O144        O  0.73417402  0.88159695  0.38035353    -0.55500
C145        C  0.75719689  0.79515710  0.37649709     0.77200
O146        O  0.67883975  0.82421965  0.43151626    -0.56600
C147        C  0.71151133  0.89574817  0.38625802     0.77100
C148        C  0.68108142  0.82332051  0.32694037     0.79500
Cd149      Cd  0.71053565  0.83447117  0.38475408     1.37500
O150        O  0.76178858  0.82196380  0.37808047    -0.55500
O151        O  0.70346954  0.83864083  0.32895448    -0.54300
C152        C  0.70021811  0.82410003  0.45004976     0.79500
O153        O  0.67118201  0.81346632  0.35252581    -0.56700
O154        O  0.73118702  0.78711192  0.37809534    -0.55100
O155        O  0.68890809  0.88126604  0.39115967    -0.55100
O156        O  0.72464784  0.82809527  0.43785542    -0.54300
O157        O  0.64564179  0.70491423  0.87835756    -0.55500
C158        C  0.57004897  0.75364825  0.87707851     0.77200
O159        O  0.64797794  0.78881990  0.92616534    -0.56600
C160        C  0.67190176  0.70993190  0.88426250     0.77100
C161        C  0.64697840  0.78396938  0.82438546     0.79500
Cd162      Cd  0.63144541  0.75630430  0.88230552     1.37500
O163        O  0.58489932  0.73082922  0.87681800    -0.55500
O164        O  0.63589209  0.75923127  0.82571160    -0.54300
C165        C  0.63314742  0.77556571  0.94651925     0.79500
O166        O  0.65072947  0.79658224  0.85037581    -0.56700
O167        O  0.58394726  0.77700914  0.87818413    -0.55100
O168        O  0.67845571  0.73582613  0.88925978    -0.55100
O169        O  0.61859900  0.75448012  0.93678636    -0.54300
O170        O  0.73982358  0.88940923  0.65273383    -0.55500
C171        C  0.76287007  0.80293431  0.65550332     0.77200
O172        O  0.67721967  0.82005480  0.67924279    -0.56600
C173        C  0.71696970  0.90347152  0.64762794     0.77100
C174        C  0.70357826  0.83016659  0.58390083     0.79500
Cd175      Cd  0.71628336  0.84228208  0.64831754     1.37500
O176        O  0.76787349  0.82970251  0.65546314    -0.55500
O177        O  0.72820620  0.83683501  0.59410502    -0.54300
C178        C  0.68699210  0.82822355  0.70549395     0.79500
O179        O  0.68329817  0.82942744  0.60381344    -0.56700
O180        O  0.73686353  0.79541880  0.65249844    -0.55100
O181        O  0.69433490  0.88892541  0.64315967    -0.55100
O182        O  0.70919434  0.84392058  0.70473014    -0.54300
O183        O  0.78413843  0.53835508  0.88159503    -0.55500
C184        C  0.76143685  0.62370767  0.88547970     0.77200
O185        O  0.84113129  0.60133092  0.92861610    -0.56600
C186        C  0.80706144  0.52359685  0.88166547     0.77100
C187        C  0.83653056  0.59783368  0.82657535     0.79500
Cd188      Cd  0.80891248  0.58446479  0.88503379     1.37500
O189        O  0.75715535  0.59722383  0.88074762    -0.55500
O190        O  0.81248738  0.58521819  0.82838211    -0.54300
C191        C  0.82789365  0.58643196  0.94891623     0.79500
O192        O  0.84858291  0.60399846  0.85235957    -0.56700
O193        O  0.78727061  0.63121236  0.88985211    -0.55100
O194        O  0.83056433  0.53739651  0.88197334    -0.55100
O195        O  0.80664218  0.57199271  0.93936928    -0.54300
O196        O  0.93299806  0.69163282  0.64782919    -0.55500
C197        C  0.84877797  0.71376019  0.65546806     0.77200
O198        O  0.87752380  0.63258893  0.60186115    -0.56600
C199        C  0.94780734  0.66895755  0.64535383     0.77100
C200        C  0.87468959  0.63812992  0.70540764     0.79500
Cd201      Cd  0.88669035  0.66648494  0.64685845     1.37500
O202        O  0.87570430  0.71796954  0.65344429    -0.55500
O203        O  0.88990690  0.66053895  0.70335514    -0.54300
C204        C  0.87440079  0.65273215  0.58218477     0.79500
O205        O  0.86543851  0.62792619  0.67975496    -0.56700
O206        O  0.84034167  0.68796762  0.65398115    -0.55100
O207        O  0.93399946  0.64561841  0.64373125    -0.55100
O208        O  0.87634526  0.67791565  0.59280214    -0.54300
O209        O  0.28260318  0.03772287  0.37937902    -0.55500
C210        C  0.26112085  0.12307487  0.38590284     0.77200
O211        O  0.34069406  0.10081271  0.42622403    -0.56600
C212        C  0.30541867  0.02279171  0.37966403     0.77100
C213        C  0.33557928  0.09757442  0.32388652     0.79500
Cd214      Cd  0.30841843  0.08366976  0.38269381     1.37500
O215        O  0.25699668  0.09722087  0.37796918    -0.55500
O216        O  0.31181923  0.08447771  0.32577194    -0.54300
C217        C  0.32834090  0.08510987  0.44647658     0.79500
O218        O  0.34752093  0.10399511  0.34964954    -0.56700
O219        O  0.28680314  0.13000650  0.39200405    -0.55100
O220        O  0.32906168  0.03637454  0.37967627    -0.55100
O221        O  0.30803029  0.06944151  0.43681423    -0.54300
O222        O  0.37430841  0.21558768  0.15353367    -0.55500
C223        C  0.44899310  0.16642779  0.14424828     0.77200
O224        O  0.36689879  0.12599564  0.17699157    -0.56600
C225        C  0.34743948  0.21061373  0.15270620     0.77100
C226        C  0.37572608  0.15409990  0.07964261     0.79500
Cd227      Cd  0.38755865  0.16515419  0.14453830     1.37500
O228        O  0.43463275  0.18947393  0.14603703    -0.55500
O229        O  0.38147624  0.17854823  0.09072091    -0.54300
C230        C  0.37496281  0.13700223  0.20274875     0.79500
O231        O  0.37548012  0.13332433  0.09888561    -0.56700
O232        O  0.43470350  0.14336487  0.14232984    -0.55100
O233        O  0.33994425  0.18475836  0.14883453    -0.55100
O234        O  0.38944982  0.15990142  0.20081812    -0.54300
O235        O  0.08666177  0.23044965  0.37798790    -0.55500
C236        C  0.17222158  0.20980514  0.38668857     0.77200
O237        O  0.15092536  0.29704858  0.35172136    -0.56600
C238        C  0.07149679  0.25303740  0.37652124     0.77100
C239        C  0.13289024  0.27507710  0.44847373     0.79500
Cd240      Cd  0.13219818  0.25654665  0.38394438     1.37500
O241        O  0.14593815  0.20510935  0.38063110    -0.55500
O242        O  0.11518767  0.25713583  0.43753661    -0.54300
C243        C  0.14634183  0.28464740  0.32574667     0.79500
O244        O  0.15047634  0.28605033  0.42912352    -0.56700
O245        O  0.17918360  0.23567729  0.39113240    -0.55100
O246        O  0.08490352  0.27669834  0.37774623    -0.55100
O247        O  0.13526099  0.25992867  0.32719334    -0.54300
O248        O  0.26596787  0.32573482  0.15574314    -0.55500
C249        C  0.21700418  0.40116760  0.15510640     0.77200
O250        O  0.18352265  0.32892310  0.10218419    -0.56600
C251        C  0.26077733  0.29931128  0.15154849     0.77100
C252        C  0.18661440  0.32581534  0.20573706     0.79500
Cd253      Cd  0.21534434  0.34048672  0.14825289     1.37500
O254        O  0.23996866  0.38652509  0.15656652    -0.55500
O255        O  0.21024170  0.33921639  0.20456344    -0.54300
C256        C  0.20069653  0.34029149  0.08260576     0.79500
O257        O  0.17524872  0.31946804  0.17959346    -0.56700
O258        O  0.19381237  0.38732573  0.15124789    -0.55100
O259        O  0.23504474  0.29274159  0.14505966    -0.55100
O260        O  0.22378628  0.35050659  0.09360506    -0.54300
O261        O  0.43484770  0.18951126  0.87708138    -0.55500
C262        C  0.34680006  0.20907145  0.87310991     0.77200
O263        O  0.37008721  0.12305070  0.85011715    -0.56600
C264        C  0.44944981  0.16839719  0.88690670     0.77100
C265        C  0.37495330  0.15397310  0.94567834     0.79500
Cd266      Cd  0.38824910  0.16446414  0.88101662     1.37500
O267        O  0.37349860  0.21492783  0.87237372    -0.55500
O268        O  0.37878257  0.17860061  0.93407369    -0.54300
C269        C  0.37848080  0.13292319  0.82396650     0.79500
O270        O  0.37670728  0.13291384  0.92690394    -0.56700
O271        O  0.34020563  0.18285283  0.87583931    -0.55100
O272        O  0.43551863  0.14585523  0.89343475    -0.55100
O273        O  0.39231067  0.15628309  0.82485333    -0.54300
O274        O  0.25927133  0.09636555  0.64750372    -0.55500
C275        C  0.30646825  0.02194021  0.64802791     0.77200
O276        O  0.34034751  0.10213634  0.59957313    -0.56600
C277        C  0.26400240  0.12298637  0.64441012     0.77100
C278        C  0.33868604  0.09360158  0.70347311     0.79500
Cd279      Cd  0.31061049  0.08268753  0.64441566     1.37500
O280        O  0.28397357  0.03735787  0.64827153    -0.55500
O281        O  0.31324874  0.08417185  0.70135036    -0.54300
C282        C  0.32904386  0.08512847  0.57988663     0.79500
O283        O  0.35181036  0.09784230  0.67779981    -0.56700
O284        O  0.33035101  0.03507424  0.64728763    -0.55100
O285        O  0.29004774  0.13032217  0.64122880    -0.55100
O286        O  0.31043432  0.06790849  0.59041482    -0.54300
O287        O  0.23863563  0.38256134  0.87461884    -0.55500
C288        C  0.25808236  0.29609481  0.87754975     0.77200
O289        O  0.18152584  0.32622667  0.92938597    -0.56600
C290        C  0.21598578  0.39763831  0.87269866     0.77100
C291        C  0.18222892  0.32381341  0.82511937     0.79500
Cd292      Cd  0.21240279  0.33736909  0.88196474     1.37500
O293        O  0.26270383  0.32239492  0.87205991    -0.55500
O294        O  0.20551139  0.33777104  0.82612882    -0.54300
C295        C  0.19842421  0.33919008  0.94801015     0.79500
O296        O  0.17170199  0.31622502  0.85132308    -0.56700
O297        O  0.23267947  0.28954399  0.88548636    -0.55100
O298        O  0.19222203  0.38441906  0.87486365    -0.55100
O299        O  0.22059894  0.35028316  0.93587420    -0.54300
O300        O  0.08565088  0.23041176  0.65528361    -0.55500
C301        C  0.17389535  0.20884120  0.64625655     0.77200
O302        O  0.15010924  0.28418183  0.60191889    -0.56600
C303        C  0.07159395  0.25376759  0.65611200     0.77100
C304        C  0.14480743  0.28218020  0.70478307     0.79500
Cd305      Cd  0.13224267  0.25420173  0.64668603     1.37500
O306        O  0.14722835  0.20301663  0.64762776    -0.55500
O307        O  0.13478429  0.25700488  0.70320624    -0.54300
C308        C  0.13370610  0.27215578  0.58212775     0.79500
O309        O  0.14940174  0.29483598  0.67891837    -0.56700
O310        O  0.18041020  0.23514360  0.64529697    -0.55100
O311        O  0.08598253  0.27663859  0.65270417    -0.55100
O312        O  0.11716984  0.25280105  0.59245290    -0.54300
O313        O  0.77849983  0.38377103  0.15627299    -0.55500
C314        C  0.75710430  0.29651014  0.16319037     0.77200
O315        O  0.83505894  0.32374806  0.10670550    -0.56600
C316        C  0.80124022  0.39813621  0.15125554     0.77100
C317        C  0.83345603  0.32578534  0.20998073     0.79500
Cd318      Cd  0.80292129  0.33647982  0.15241573     1.37500
O319        O  0.75177436  0.32292767  0.15899696    -0.55500
O320        O  0.80993690  0.33933793  0.20873950    -0.54300
C321        C  0.81431459  0.32300915  0.08739523     0.79500
O322        O  0.84391529  0.31787204  0.18389525    -0.56700
O323        O  0.78336949  0.28936032  0.16310786    -0.55100
O324        O  0.82388905  0.38379254  0.14641161    -0.55100
O325        O  0.78960476  0.32777302  0.09856209    -0.54300
O326        O  0.93244702  0.22761732  0.37876137    -0.55500
C327        C  0.84408084  0.20700899  0.38211746     0.77200
O328        O  0.87147644  0.28330746  0.43178359    -0.56600
C329        C  0.94706592  0.25065849  0.37836257     0.77100
C330        C  0.87345899  0.28361003  0.32933279     0.79500
Cd331      Cd  0.88604157  0.25253959  0.38605470     1.37500
O332        O  0.87067226  0.20173863  0.37878264    -0.55500
O333        O  0.88601619  0.25959429  0.32974017    -0.54300
C334        C  0.88570209  0.26866587  0.45143495     0.79500
O335        O  0.86672120  0.29401176  0.35580828    -0.56700
O336        O  0.83762832  0.23279875  0.38787627    -0.55100
O337        O  0.93308089  0.27379181  0.38116047    -0.55100
O338        O  0.89921006  0.24730079  0.44075818    -0.54300
O339        O  0.58882395  0.18537925  0.14526567    -0.55500
C340        C  0.67257292  0.20621009  0.15832408     0.77200
O341        O  0.65344462  0.11886799  0.17827295    -0.56600
C342        C  0.57332914  0.16308427  0.14347014     0.77100
C343        C  0.65102436  0.14657095  0.08221185     0.79500
Cd344      Cd  0.63486632  0.15913003  0.14595076     1.37500
O345        O  0.64585157  0.21014837  0.15410893    -0.55500
O346        O  0.64841404  0.17145035  0.09343958    -0.54300
C347        C  0.64499652  0.12967967  0.20395461     0.79500
O348        O  0.64654667  0.12593362  0.10095374    -0.56700
O349        O  0.68133771  0.18053427  0.15699301    -0.55100
O350        O  0.58650111  0.13940849  0.14201221    -0.55100
O351        O  0.63148107  0.15309860  0.20210524    -0.54300
O352        O  0.73152018  0.03479091  0.38323453    -0.55500
C353        C  0.75386481  0.12092455  0.37916451     0.77200
O354        O  0.66773793  0.09903317  0.35171503    -0.56600
C355        C  0.70920680  0.01986484  0.38840631     0.77100
C356        C  0.69404480  0.09540835  0.44984085     0.79500
Cd357      Cd  0.70709402  0.08117531  0.38598197     1.37500
O358        O  0.75860333  0.09417967  0.38098465    -0.55500
O359        O  0.71853727  0.08782370  0.44007533    -0.54300
C360        C  0.68002259  0.09127338  0.32653038     0.79500
O361        O  0.67390550  0.09609180  0.42976537    -0.56700
O362        O  0.72771616  0.12849117  0.37963945    -0.55100
O363        O  0.68604587  0.03357309  0.39270558    -0.55100
O364        O  0.70368796  0.07826511  0.32956994    -0.54300
O365        O  0.75562473  0.32530786  0.88019124    -0.55500
C366        C  0.80596381  0.39976149  0.88707061     0.77200
O367        O  0.83797627  0.32637264  0.93443340    -0.56600
C368        C  0.76092900  0.29870669  0.87760508     0.77100
C369        C  0.83613800  0.32748643  0.83010583     0.79500
Cd370      Cd  0.80674291  0.33859535  0.88787436     1.37500
O371        O  0.78289106  0.38532009  0.88501072    -0.55500
O372        O  0.81332660  0.34215638  0.83175647    -0.54300
C373        C  0.81667952  0.32597020  0.95311341     0.79500
O374        O  0.84632351  0.31847926  0.85589906    -0.56700
O375        O  0.82903095  0.38566386  0.89021169    -0.55100
O376        O  0.78714499  0.29147585  0.87892779    -0.55100
O377        O  0.79240478  0.33148281  0.94133259    -0.54300
O378        O  0.87098208  0.20847317  0.65661029    -0.55500
C379        C  0.94736203  0.25698586  0.65943746     0.77200
O380        O  0.87125884  0.28776553  0.60432683    -0.56600
C381        C  0.84441389  0.21426220  0.65416814     0.77100
C382        C  0.87429311  0.28803514  0.70899689     0.79500
Cd383      Cd  0.88664077  0.25911400  0.65133511     1.37500
O384        O  0.93223098  0.23427697  0.65983357    -0.55500
O385        O  0.88534026  0.26334152  0.70740032    -0.54300
C386        C  0.88636239  0.27292875  0.58556220     0.79500
O387        O  0.86886487  0.30028060  0.68307629    -0.56700
O388        O  0.93395059  0.28040428  0.65586125    -0.55100
O389        O  0.83814597  0.24035649  0.65003309    -0.55100
O390        O  0.90096201  0.25289325  0.59748283    -0.54300
O391        O  0.58901825  0.18925301  0.88404989    -0.55500
C392        C  0.67418670  0.20967253  0.87666387     0.77200
O393        O  0.64621510  0.12894203  0.92969050    -0.56600
C394        C  0.57363744  0.16777626  0.89121536     0.77100
C395        C  0.64281328  0.13336595  0.82787338     0.79500
Cd396      Cd  0.63485229  0.16314274  0.88602418     1.37500
O397        O  0.64741453  0.21430714  0.87951047    -0.55500
O398        O  0.62766179  0.15569406  0.83050727    -0.54300
C399        C  0.65062630  0.14903653  0.94914257     0.79500
O400        O  0.65376229  0.12374759  0.85295030    -0.56700
O401        O  0.68197427  0.18367856  0.87713742    -0.55100
O402        O  0.58685827  0.14459613  0.89655501    -0.55100
O403        O  0.64799535  0.17427440  0.93885712    -0.54300
O404        O  0.73524402  0.04311866  0.64880178    -0.55500
C405        C  0.75403092  0.12864968  0.65579146     0.77200
O406        O  0.67410187  0.09866521  0.60256590    -0.56600
C407        C  0.71320429  0.02742814  0.64517152     0.77100
C408        C  0.67884211  0.09680212  0.70541952     0.79500
Cd409      Cd  0.70821413  0.08843611  0.64719171     1.37500
O410        O  0.75901854  0.10198397  0.65370678    -0.55500
O411        O  0.70187957  0.08263276  0.70293780    -0.54300
C412        C  0.69451728  0.10131818  0.58300666     0.79500
O413        O  0.66843036  0.10671541  0.68017820    -0.56700
O414        O  0.72783243  0.13606806  0.65520673    -0.55100
O415        O  0.68944299  0.04028946  0.64195201    -0.55100
O416        O  0.71966610  0.09846711  0.59367962    -0.54300
C417        C  0.66858726  0.09819094  0.79331756     0.25900
C418        C  0.64839718  0.12039353  0.79678066    -0.22200
C419        C  0.63542660  0.13191965  0.76973852     0.20800
C420        C  0.64402683  0.12298541  0.73997713     0.25900
C421        C  0.66593845  0.10249540  0.73651868    -0.22100
C422        C  0.67732183  0.08939059  0.76354353     0.20800
F423        F  0.69777445  0.06872043  0.76134192    -0.12100
F424        F  0.68099968  0.08583009  0.81867649    -0.14400
F425        F  0.63187062  0.13557653  0.71460217    -0.14400
F426        F  0.61518739  0.15279401  0.77187520    -0.12100
C427        C  0.82843121  0.16264540  0.65586343     0.25900
C428        C  0.82162497  0.19205143  0.65601832    -0.22200
C429        C  0.79250201  0.20025006  0.65764410     0.20800
C430        C  0.77074128  0.17966132  0.65856938     0.25900
C431        C  0.77742476  0.15023828  0.65764181    -0.22100
C432        C  0.80656394  0.14195895  0.65661296     0.20800
F433        F  0.81402030  0.11384088  0.65565967    -0.12100
F434        F  0.85620416  0.15378172  0.65420333    -0.14400
F435        F  0.74302554  0.18878600  0.65977396    -0.14400
F436        F  0.78481637  0.22833125  0.65813228    -0.12100
C437        C  0.74545116  0.24815517  0.86763456     0.25900
C438        C  0.73800176  0.27678179  0.87420353    -0.22200
C439        C  0.70885449  0.28354057  0.87942388     0.20800
C440        C  0.68787050  0.26191604  0.87939577     0.25900
C441        C  0.69558875  0.23314706  0.87388419    -0.22100
C442        C  0.72457162  0.22667856  0.86744781     0.20800
F443        F  0.73305905  0.19935477  0.86156841    -0.12100
F444        F  0.77317353  0.24060656  0.86191956    -0.14400
F445        F  0.66022229  0.26907430  0.88603469    -0.14400
F446        F  0.70070303  0.31086370  0.88579664    -0.12100
C447        C  0.83942926  0.33387419  0.77178163     0.25900
C448        C  0.84911986  0.32032572  0.79935433    -0.22200
C449        C  0.86949459  0.29821666  0.79682380     0.20800
C450        C  0.87850956  0.28860179  0.76746639     0.25900
C451        C  0.86751713  0.30097696  0.73984080    -0.22100
C452        C  0.84859133  0.32434062  0.74236712     0.20800
F453        F  0.83786279  0.33719890  0.71640132    -0.12100
F454        F  0.82045447  0.35595267  0.77311355    -0.14400
F455        F  0.89752516  0.26655372  0.76623312    -0.14400
F456        F  0.87978200  0.28484908  0.82269826    -0.12100
C457        C  0.66573934  0.09446249  0.50028457     0.25900
C458        C  0.69027189  0.10280722  0.48320700    -0.22200
C459        C  0.71346393  0.11547541  0.49912664     0.20800
C460        C  0.71332079  0.11751186  0.53158218     0.25900
C461        C  0.69031102  0.10620712  0.54908584    -0.22100
C462        C  0.66580209  0.09602355  0.53316015     0.20800
F463        F  0.64294796  0.08553797  0.54933449    -0.12100
F464        F  0.64282381  0.08259098  0.48546097    -0.14400
F465        F  0.73653832  0.12930465  0.54599622    -0.14400
F466        F  0.73705593  0.12476544  0.48328032    -0.12100
C467        C  0.64791906  0.11896594  0.03148325     0.25900
C468        C  0.65766650  0.14291785  0.04854912    -0.22200
C469        C  0.67040432  0.16588025  0.03227950     0.20800
C470        C  0.67017395  0.16658129  0.99974672     0.25900
C471        C  0.65731162  0.14427154  0.98258429    -0.22100
C472        C  0.64773019  0.11965306  0.99860427     0.20800
F473        F  0.63605958  0.09731982  0.98267303    -0.12100
F474        F  0.63651622  0.09593445  0.04645380    -0.14400
F475        F  0.68125849  0.18996911  0.98508411    -0.14400
F476        F  0.68181633  0.18856086  0.04790514    -0.12100
C477        C  0.63631614  0.12567441  0.26171246     0.25900
C478        C  0.65132592  0.11662704  0.23480054    -0.22200
C479        C  0.67389636  0.09686786  0.23818690     0.20800
C480        C  0.68240931  0.08771327  0.26791406     0.25900
C481        C  0.66837515  0.09793483  0.29500640    -0.22100
C482        C  0.64461905  0.11628972  0.29143363     0.20800
F483        F  0.62999894  0.12613040  0.31673553    -0.12100
F484        F  0.61391126  0.14421186  0.25942831    -0.14400
F485        F  0.70510055  0.06951673  0.27005954    -0.14400
F486        F  0.68885940  0.08752975  0.21288394    -0.12100
C487        C  0.86206015  0.28502147  0.53455963     0.25900
C488        C  0.88702912  0.27760363  0.55130932    -0.22200
C489        C  0.91229600  0.27109270  0.53464018     0.20800
C490        C  0.91210766  0.26989196  0.50203264     0.25900
C491        C  0.88668281  0.27529077  0.48527116    -0.22100
C492        C  0.86192056  0.28396151  0.50169353     0.20800
F493        F  0.83704481  0.28923612  0.48612553    -0.12100
F494        F  0.83724698  0.29104998  0.54995777    -0.14400
F495        F  0.93674358  0.26275754  0.48679824    -0.14400
F496        F  0.93712172  0.26505959  0.55002468    -0.12100
C497        C  0.82835962  0.15518493  0.37971210     0.25900
C498        C  0.82145799  0.18458927  0.37949471    -0.22200
C499        C  0.79234073  0.19261757  0.37708395     0.20800
C500        C  0.77065157  0.17193209  0.37609160     0.25900
C501        C  0.77736677  0.14251973  0.37750603    -0.22100
C502        C  0.80654546  0.13436451  0.37872496     0.20800
F503        F  0.81407336  0.10625933  0.37947608    -0.12100
F504        F  0.85616031  0.14647443  0.38164723    -0.14400
F505        F  0.74294507  0.18096959  0.37410671    -0.14400
F506        F  0.78460135  0.22065209  0.37564493    -0.12100
C507        C  0.84377129  0.32715714  0.00444500     0.25900
C508        C  0.81902470  0.31998193  0.98711659    -0.22200
C509        C  0.79472947  0.30948924  0.00314493     0.20800
C510        C  0.79420614  0.30850730  0.03571799     0.25900
C511        C  0.81792125  0.31810645  0.05328665    -0.22100
C512        C  0.84324117  0.32616987  0.03735447     0.20800
F513        F  0.86673530  0.33503406  0.05353929    -0.12100
F514        F  0.86768042  0.33711063  0.98974921    -0.14400
F515        F  0.76989990  0.29905645  0.05010312    -0.14400
F516        F  0.77086371  0.30104552  0.98727427    -0.12100
C517        C  0.70558691  0.28063696  0.15784409     0.25900
C518        C  0.73415056  0.27464338  0.16660849    -0.22200
C519        C  0.74119514  0.24662167  0.17616054     0.20800
C520        C  0.72080739  0.22468092  0.17466183     0.25900
C521        C  0.69283390  0.23021441  0.16368320    -0.22100
C522        C  0.68513565  0.25860649  0.15630873     0.20800
F523        F  0.65822596  0.26491291  0.14609120    -0.12100
F524        F  0.69768441  0.30751382  0.14926207    -0.14400
F525        F  0.72871925  0.19785808  0.18350734    -0.14400
F526        F  0.76806342  0.24017365  0.18643158    -0.12100
C527        C  0.83519444  0.32916345  0.26873137     0.25900
C528        C  0.84691197  0.31852717  0.24054982    -0.22200
C529        C  0.86992436  0.29901897  0.24221836     0.20800
C530        C  0.87938960  0.28867878  0.27116874     0.25900
C531        C  0.86631839  0.29784076  0.29922000    -0.22100
C532        C  0.84491407  0.31906119  0.29769687     0.20800
F533        F  0.83223507  0.32903772  0.32414851    -0.12100
F534        F  0.81353892  0.34867362  0.26840970    -0.14400
F535        F  0.90097801  0.26909687  0.27158962    -0.14400
F536        F  0.88253726  0.28886521  0.21580707    -0.12100
C537        C  0.02523034  0.28099775  0.65900361     0.25900
C538        C  0.03993507  0.25460846  0.66006826    -0.22200
C539        C  0.02390985  0.22920221  0.66375894     0.20800
C540        C  0.99385024  0.23003190  0.66471868     0.25900
C541        C  0.97913824  0.25628034  0.66195588    -0.22100
C542        C  0.99524260  0.28182339  0.65995029     0.20800
F543        F  0.98209353  0.30775621  0.65809066    -0.12100
F544        F  0.03972583  0.30618495  0.65622618    -0.14400
F545        F  0.97922034  0.20495959  0.66765950    -0.14400
F546        F  0.03719814  0.20337643  0.66582695    -0.12100
C547        C  0.17989420  0.32842099  0.76671445     0.25900
C548        C  0.16922862  0.31604514  0.79455885    -0.22200
C549        C  0.14803057  0.29459025  0.79240666     0.20800
C550        C  0.13937104  0.28423940  0.76315794     0.25900
C551        C  0.15137707  0.29546623  0.73542065    -0.22100
C552        C  0.17095282  0.31833896  0.73752694     0.20800
F553        F  0.18264625  0.33008362  0.71137398    -0.12100
F554        F  0.19969234  0.34985163  0.76755572    -0.14400
F555        F  0.11956751  0.26281562  0.76208054    -0.14400
F556        F  0.13650304  0.28269502  0.81855318    -0.12100
C557        C  0.24716392  0.17379724  0.64013188     0.25900
C558        C  0.24062225  0.14459746  0.64461453    -0.22200
C559        C  0.21171919  0.13657216  0.64952732     0.20800
C560        C  0.18994475  0.15732112  0.65017644     0.25900
C561        C  0.19658256  0.18650218  0.64566039    -0.22100
C562        C  0.22548827  0.19440380  0.64056030     0.20800
F563        F  0.23303965  0.22220187  0.63574906    -0.12100
F564        F  0.27464433  0.18268288  0.63520163    -0.14400
F565        F  0.16244581  0.14878007  0.65556900    -0.14400
F566        F  0.20441770  0.10866156  0.65389623    -0.12100
C567        C  0.49703577  0.19262636  0.87782297     0.25900
C568        C  0.48113133  0.16956525  0.89022150    -0.22200
C569        C  0.49593767  0.14699746  0.90502494     0.20800
C570        C  0.52593782  0.14678580  0.90598248     0.25900
C571        C  0.54188196  0.16929930  0.89251477    -0.22100
C572        C  0.52709588  0.19252351  0.87902033     0.20800
F573        F  0.54167256  0.21471812  0.86587653    -0.12100
F574        F  0.48363190  0.21494691  0.86363079    -0.14400
F575        F  0.53931269  0.12431559  0.91996613    -0.14400
F576        F  0.48147972  0.12487012  0.91848356    -0.12100
C577        C  0.29561332  0.22415787  0.87988276     0.25900
C578        C  0.32417374  0.23142000  0.87214361    -0.22200
C579        C  0.33073979  0.26019652  0.86511462     0.20800
C580        C  0.30931201  0.28129045  0.86652486     0.25900
C581        C  0.28089267  0.27400235  0.87498890    -0.22100
C582        C  0.27431812  0.24509425  0.88123432     0.20800
F583        F  0.24723047  0.23685675  0.88914794    -0.12100
F584        F  0.28817612  0.19677408  0.88710706    -0.14400
F585        F  0.31653454  0.30884006  0.85985198    -0.14400
F586        F  0.35787741  0.26802890  0.85695713    -0.12100
C587        C  0.33856088  0.09024035  0.76221234     0.25900
C588        C  0.35162911  0.10017398  0.73443481    -0.22200
C589        C  0.37589419  0.11809762  0.73675749     0.20800
C590        C  0.38558217  0.12751278  0.76599868     0.25900
C591        C  0.37136201  0.11906166  0.79365916    -0.22100
C592        C  0.34840081  0.09947872  0.79147041     0.20800
F593        F  0.33435540  0.09041894  0.81752624    -0.12100
F594        F  0.31566300  0.07213852  0.76117507    -0.14400
F595        F  0.40847205  0.14561362  0.76707822    -0.14400
F596        F  0.38945696  0.12777524  0.71067354    -0.12100
C597        C  0.20619941  0.36445718  0.99862918     0.25900
C598        C  0.19367561  0.34141266  0.98230110    -0.22200
C599        C  0.17953172  0.31978293  0.99948938     0.20800
C600        C  0.18005735  0.32011332  0.03243270     0.25900
C601        C  0.19500719  0.34187937  0.04850113    -0.22100
C602        C  0.20701971  0.36459150  0.03121888     0.20800
F603        F  0.22018513  0.38684603  0.04591761    -0.12100
F604        F  0.21840235  0.38672081  0.98297058    -0.14400
F605        F  0.16762959  0.29823565  0.04846350    -0.14400
F606        F  0.16689799  0.29740638  0.98453949    -0.12100
C607        C  0.02381908  0.27778389  0.37574785     0.25900
C608        C  0.03970490  0.25214483  0.37443021    -0.22200
C609        C  0.02478211  0.22589156  0.37245879     0.20800
C610        C  0.99465703  0.22529480  0.37293164     0.25900
C611        C  0.97885172  0.25093771  0.37546257    -0.22100
C612        C  0.99386156  0.27719507  0.37626968     0.20800
F613        F  0.97967774  0.30257058  0.37819891    -0.12100
F614        F  0.03715937  0.30367720  0.37727490    -0.14400
F615        F  0.98108495  0.19953663  0.37136262    -0.14400
F616        F  0.03924916  0.20068981  0.37046753    -0.12100
C617        C  0.10724783  0.27989239  0.49936861     0.25900
C618        C  0.13316650  0.28130432  0.48242685    -0.22200
C619        C  0.15925284  0.28410852  0.49888189     0.20800
C620        C  0.15950221  0.28302718  0.53173734     0.25900
C621        C  0.13365466  0.27937250  0.54844870    -0.22100
C622        C  0.10750191  0.27895305  0.53199952     0.20800
F623        F  0.08212706  0.27652662  0.54757351    -0.12100
F624        F  0.08161441  0.27821069  0.48423597    -0.14400
F625        F  0.18511307  0.28293228  0.54697729    -0.14400
F626        F  0.18464296  0.28527337  0.48320430    -0.12100
C627        C  0.18468416  0.32927802  0.26433375     0.25900
C628        C  0.17383705  0.31752195  0.23629396    -0.22200
C629        C  0.15208960  0.29658539  0.23808664     0.20800
C630        C  0.14239240  0.28670538  0.26717274     0.25900
C631        C  0.15416301  0.29758720  0.29517179    -0.22100
C632        C  0.17484588  0.31953642  0.29338555     0.20800
F633        F  0.18660735  0.33075499  0.31974325    -0.12100
F634        F  0.20537769  0.34986298  0.26380589    -0.14400
F635        F  0.12170277  0.26612015  0.26782847    -0.14400
F636        F  0.14096173  0.28473547  0.21173449    -0.12100
C637        C  0.49678045  0.19069990  0.13643496     0.25900
C638        C  0.48079264  0.16611011  0.14444448    -0.22200
C639        C  0.49550317  0.14079836  0.15237594     0.20800
C640        C  0.52548264  0.13993187  0.15196635     0.25900
C641        C  0.54153997  0.16435500  0.14360561    -0.22100
C642        C  0.52689480  0.18980691  0.13593608     0.20800
F643        F  0.54163589  0.21368695  0.12728919    -0.12100
F644        F  0.48332299  0.21543638  0.12837132    -0.14400
F645        F  0.53876060  0.11523211  0.16051720    -0.14400
F646        F  0.48091737  0.11687854  0.16124034    -0.12100
C647        C  0.37935706  0.12648809  0.02912475     0.25900
C648        C  0.37026542  0.15088669  0.04574512    -0.22200
C649        C  0.35869902  0.17417560  0.02910933     0.20800
C650        C  0.35841239  0.17413602  0.99652695     0.25900
C651        C  0.36978962  0.15083312  0.97969666    -0.22100
C652        C  0.37918406  0.12648328  0.99625144     0.20800
F653        F  0.39023897  0.10362381  0.98074553    -0.12100
F654        F  0.39044535  0.10359996  0.04454193    -0.14400
F655        F  0.34789568  0.19750176  0.98142557    -0.14400
F656        F  0.34846535  0.19755956  0.04443568    -0.12100
C657        C  0.31270156  0.28423298  0.15457864     0.25900
C658        C  0.28327456  0.27700208  0.15400753    -0.22200
C659        C  0.27531988  0.24789996  0.15542206     0.20800
C660        C  0.29619036  0.22651534  0.15607182     0.25900
C661        C  0.32564637  0.23361192  0.15516612    -0.22100
C662        C  0.33369448  0.26273492  0.15504269     0.20800
F663        F  0.36185583  0.27051944  0.15453156    -0.12100
F664        F  0.32127972  0.31205970  0.15383328    -0.14400
F665        F  0.28732746  0.19876837  0.15725411    -0.14400
F666        F  0.24720838  0.23990613  0.15619102    -0.12100
C667        C  0.33350586  0.05912833  0.49678581     0.25900
C668        C  0.33592844  0.08493519  0.48004083    -0.22200
C669        C  0.34094747  0.11057211  0.49652417     0.20800
C670        C  0.34084346  0.11066023  0.52942896     0.25900
C671        C  0.33597377  0.08504412  0.54607397    -0.22100
C672        C  0.33361693  0.05916181  0.52938444     0.20800
F673        F  0.33000638  0.03388274  0.54469252    -0.12100
F674        F  0.32962587  0.03387864  0.48151234    -0.14400
F675        F  0.34284771  0.13603453  0.54481884    -0.14400
F676        F  0.34326074  0.13581750  0.48092368    -0.12100
C677        C  0.20940741  0.13765070  0.37798564     0.25900
C678        C  0.23757106  0.14439702  0.38774625    -0.22200
C679        C  0.24335451  0.17223099  0.39884563     0.20800
C680        C  0.22194188  0.19306523  0.39905764     0.25900
C681        C  0.19404449  0.18673075  0.38824642    -0.22100
C682        C  0.18782100  0.15860309  0.37831982     0.20800
F683        F  0.16104049  0.15141930  0.36833361    -0.12100
F684        F  0.20277127  0.11095294  0.36757847    -0.14400
F685        F  0.22877119  0.21958432  0.40989862    -0.14400
F686        F  0.26989085  0.17960918  0.40945280    -0.12100
C687        C  0.36870231  0.12741582  0.29073987     0.25900
C688        C  0.34798172  0.10554092  0.29308484    -0.22200
C689        C  0.33784071  0.09253736  0.26542738     0.20800
C690        C  0.34733149  0.10199420  0.23610474     0.25900
C691        C  0.36719671  0.12468588  0.23369884    -0.22100
C692        C  0.37819638  0.13688600  0.26145510     0.20800
F693        F  0.39766109  0.15861153  0.26044455    -0.12100
F694        F  0.37892122  0.14064934  0.31674701    -0.14400
F695        F  0.33624731  0.08948377  0.21009542    -0.14400
F696        F  0.31835401  0.07083782  0.26663534    -0.12100
C697        C  0.78072880  0.47694607  0.88778069     0.25900
C698        C  0.80656342  0.49189371  0.88212808    -0.22200
C699        C  0.83219007  0.47622086  0.87819390     0.20800
C700        C  0.83199100  0.44635136  0.87996947     0.25900
C701        C  0.80613980  0.43141421  0.88556232    -0.22100
C702        C  0.78051365  0.44703479  0.88938126     0.20800
F703        F  0.75523514  0.43345149  0.89535447    -0.12100
F704        F  0.75565843  0.49121177  0.89250905    -0.14400
F705        F  0.85717827  0.43211499  0.87578596    -0.14400
F706        F  0.85759427  0.48969560  0.87251340    -0.12100
C707        C  0.87945242  0.63675200  0.76407477     0.25900
C708        C  0.86746674  0.62542044  0.73635151    -0.22200
C709        C  0.84724350  0.60304631  0.73879628     0.20800
C710        C  0.83815546  0.59328470  0.76812495     0.25900
C711        C  0.84901681  0.60566089  0.79578093    -0.22100
C712        C  0.87036097  0.62694349  0.79341056     0.20800
F713        F  0.88161172  0.63924104  0.81946455    -0.12100
F714        F  0.89950656  0.65793743  0.76300652    -0.14400
F715        F  0.81830900  0.57190993  0.76934250    -0.14400
F716        F  0.83543310  0.59113298  0.71283787    -0.12100
C717        C  0.74081566  0.95141604  0.65522812     0.25900
C718        C  0.71645449  0.93519025  0.64674941    -0.22200
C719        C  0.69131704  0.94962935  0.63735540     0.20800
C720        C  0.69053785  0.97947250  0.63639121     0.25900
C721        C  0.71477261  0.99575095  0.64506763    -0.22100
C722        C  0.73996744  0.98139266  0.65443939     0.20800
F723        F  0.76368172  0.99627085  0.66347086    -0.12100
F724        F  0.76537963  0.93838627  0.66481266    -0.14400
F725        F  0.66589154  0.99234243  0.62677012    -0.14400
F726        F  0.66726621  0.93496862  0.62893647    -0.12100
C727        C  0.81496601  0.78790360  0.65355110     0.25900
C728        C  0.78575856  0.78108817  0.65839613    -0.22200
C729        C  0.77809786  0.75245591  0.66464439     0.20800
C730        C  0.79879288  0.73098045  0.66478229     0.25900
C731        C  0.82781412  0.73742225  0.65857018    -0.22100
C732        C  0.83585051  0.76622741  0.65365688     0.20800
F733        F  0.86368229  0.77335901  0.64781092    -0.12100
F734        F  0.82322705  0.81527948  0.64747625    -0.14400
F735        F  0.79009870  0.70367265  0.67056294    -0.14400
F736        F  0.75033612  0.74491799  0.67030227    -0.12100
C737        C  0.70941673  0.63762408  0.87794369     0.25900
C738        C  0.73790097  0.64509547  0.88584466    -0.22200
C739        C  0.74405902  0.67372005  0.89381712     0.20800
C740        C  0.72260279  0.69445311  0.89332142     0.25900
C741        C  0.69414989  0.68721777  0.88520684    -0.22100
C742        C  0.68770698  0.65848433  0.87773910     0.20800
F743        F  0.66053436  0.65053983  0.86989815    -0.12100
F744        F  0.70254461  0.61026170  0.87004583    -0.14400
F745        F  0.73000200  0.72178357  0.90080315    -0.14400
F746        F  0.77101149  0.68196220  0.90219558    -0.12100
C747        C  0.64660756  0.78405920  0.76563636     0.25900
C748        C  0.65534439  0.79691766  0.79394649    -0.22200
C749        C  0.67292684  0.82149373  0.79266697     0.20800
C750        C  0.68216765  0.83243183  0.76385994     0.25900
C751        C  0.67420351  0.81895208  0.73564705    -0.22100
C752        C  0.65585666  0.79498341  0.73688433     0.20800
F753        F  0.64772552  0.78126250  0.71031139    -0.12100
F754        F  0.62944832  0.76046935  0.76560512    -0.14400
F755        F  0.69929827  0.85604798  0.76370683    -0.14400
F756        F  0.68209325  0.83445863  0.81928527    -0.12100
C757        C  0.68509902  0.94225911  0.39214254     0.25900
C758        C  0.71117840  0.92749262  0.38742302    -0.22200
C759        C  0.73673938  0.94342294  0.38398181     0.20800
C760        C  0.73617548  0.97337507  0.38481369     0.25900
C761        C  0.71002337  0.98812001  0.38896097    -0.22100
C762        C  0.68454047  0.97216012  0.39299042     0.20800
F763        F  0.65885081  0.98536706  0.39755545    -0.12100
F764        F  0.65987314  0.92787147  0.39569138    -0.14400
F765        F  0.76136375  0.98786311  0.38153914    -0.14400
F766        F  0.76242208  0.93012576  0.37980818    -0.12100
C767        C  0.67333630  0.82904695  0.50126651     0.25900
C768        C  0.69789588  0.82042086  0.48436927    -0.22200
C769        C  0.72235907  0.81130517  0.50095535     0.20800
C770        C  0.72323330  0.81297528  0.53339352     0.25900
C771        C  0.69970654  0.82382165  0.55027781    -0.22100
C772        C  0.67425543  0.83076267  0.53411910     0.20800
F773        F  0.65108136  0.84107072  0.54982560    -0.12100
F774        F  0.64924854  0.83767789  0.48602961    -0.14400
F775        F  0.74767037  0.80472399  0.54828179    -0.14400
F776        F  0.74610581  0.80169638  0.48567611    -0.12100
C777        C  0.65750347  0.79441813  0.02895310     0.25900
C778        C  0.63383686  0.78410028  0.04621218    -0.22200
C779        C  0.60859050  0.77637605  0.03020360     0.20800
C780        C  0.60790981  0.77599789  0.99767270     0.25900
C781        C  0.63253176  0.78312397  0.98019535    -0.22100
C782        C  0.65690626  0.79382808  0.99600233     0.20800
F783        F  0.68082790  0.80152215  0.97979535    -0.12100
F784        F  0.68188805  0.80283024  0.04381892    -0.14400
F785        F  0.58336534  0.76734356  0.98322394    -0.14400
F786        F  0.58476302  0.76786741  0.04616025    -0.12100
C787        C  0.66925881  0.82210304  0.23913724     0.25900
C788        C  0.65067785  0.79850181  0.23559963    -0.22200
C789        C  0.63953870  0.78524382  0.26274638     0.20800
C790        C  0.64822349  0.79421466  0.29253476     0.25900
C791        C  0.66830672  0.81657162  0.29594686    -0.22100
C792        C  0.67799856  0.83099307  0.26889425     0.20800
F793        F  0.69664266  0.85334916  0.27104024    -0.12100
F794        F  0.67995977  0.83603493  0.21378007    -0.14400
F795        F  0.63792109  0.78003535  0.31792293    -0.14400
F796        F  0.62088015  0.76289428  0.26062306    -0.12100
C797        C  0.85419762  0.66829347  0.49858300     0.25900
C798        C  0.86954414  0.64713254  0.48214320    -0.22200
C799        C  0.88292907  0.62498349  0.49912600     0.20800
C800        C  0.88299350  0.62548435  0.53203896     0.25900
C801        C  0.86954916  0.64806142  0.54829744    -0.22100
C802        C  0.85420064  0.66874904  0.53120264     0.20800
F803        F  0.83999691  0.69020344  0.54611817    -0.12100
F804        F  0.83995892  0.68930925  0.48300363    -0.14400
F805        F  0.89816508  0.60529464  0.54782738    -0.14400
F806        F  0.89786894  0.60420055  0.48398733    -0.12100
C807        C  0.83042962  0.75978743  0.38325039     0.25900
C808        C  0.82449771  0.73189693  0.37237199    -0.22200
C809        C  0.79668404  0.72562891  0.36120408     0.20800
C810        C  0.77507463  0.74638160  0.36197975     0.25900
C811        C  0.78079162  0.77404198  0.37355747    -0.22100
C812        C  0.80881307  0.78067786  0.38373603     0.20800
F813        F  0.81499545  0.80694842  0.39566405    -0.12100
F814        F  0.85678128  0.76656848  0.39479103    -0.14400
F815        F  0.74843414  0.73925119  0.35147241    -0.14400
F816        F  0.79017788  0.69926856  0.34969739    -0.12100
C817        C  0.82833234  0.44449526  0.15309268     0.25900
C818        C  0.80182228  0.42995131  0.15116706    -0.22200
C819        C  0.77634698  0.44615163  0.14898945     0.20800
C820        C  0.77747868  0.47619531  0.14821128     0.25900
C821        C  0.80407691  0.49067038  0.14997431    -0.22100
C822        C  0.82946045  0.47437827  0.15246480     0.20800
F823        F  0.85561253  0.48727076  0.15454522    -0.12100
F824        F  0.85340555  0.42984585  0.15614914    -0.14400
F825        F  0.75252124  0.49102076  0.14514037    -0.14400
F826        F  0.75032621  0.43300086  0.14708931    -0.12100
C827        C  0.84456366  0.61008140  0.99875568     0.25900
C828        C  0.83588814  0.58539608  0.98229834    -0.22200
C829        C  0.83113570  0.55980307  0.99886609     0.20800
C830        C  0.83216609  0.55949863  0.03135866     0.25900
C831        C  0.83767848  0.58482025  0.04807383    -0.22100
C832        C  0.84551218  0.60977793  0.03163153     0.20800
F833        F  0.85152100  0.63438378  0.04728671    -0.12100
F834        F  0.84953121  0.63502440  0.98330854    -0.14400
F835        F  0.82615581  0.53465548  0.04664848    -0.14400
F836        F  0.82401472  0.53525204  0.98361195    -0.08900
C837        C  0.74819940  0.67609710  0.13616275     0.25900
C838        C  0.74133166  0.64734875  0.14303246    -0.22200
C839        C  0.71246077  0.64028423  0.14971563     0.20800
C840        C  0.69114735  0.66154992  0.15004775     0.25900
C841        C  0.69821244  0.69036253  0.14367062    -0.22100
C842        C  0.72700523  0.69725235  0.13652749     0.20800
F843        F  0.73490989  0.72459721  0.12972523    -0.12100
F844        F  0.77554184  0.68399764  0.12891299    -0.14400
F845        F  0.66366036  0.65385117  0.15686304    -0.14400
F846        F  0.70474230  0.61282184  0.15614171    -0.12100
C847        C  0.83659015  0.59248084  0.26240468     0.25900
C848        C  0.85080866  0.60176612  0.23504639    -0.22200
C849        C  0.87558762  0.61892498  0.23807719     0.20800
C850        C  0.88465647  0.62822407  0.26762142     0.25900
C851        C  0.86933964  0.62026985  0.29479117    -0.22100
C852        C  0.84579020  0.60155651  0.29187140     0.20800
F853        F  0.83053278  0.59322047  0.31739797    -0.12100
F854        F  0.81307983  0.57522815  0.26076549    -0.14400
F855        F  0.90803153  0.64566070  0.26947275    -0.14400
F856        F  0.89038855  0.62780295  0.21244539    -0.12100
C857        C  0.02479290  0.64421191  0.63727678     0.25900
C858        C  0.04024352  0.66925100  0.64477927    -0.22200
C859        C  0.02499714  0.69459595  0.65145358     0.20800
C860        C  0.99493562  0.69467851  0.65129981     0.25900
C861        C  0.97955048  0.66942361  0.64450159    -0.22100
C862        C  0.99484911  0.64428551  0.63719231     0.20800
F863        F  0.98092947  0.61956640  0.62984440    -0.12100
F864        F  0.03855211  0.61940943  0.63005396    -0.14400
F865        F  0.98098869  0.71940018  0.65839677    -0.14400
F866        F  0.03905958  0.71927870  0.65860773    -0.12100
C867        C  0.19117698  0.47427013  0.86373285     0.25900
C868        C  0.21664398  0.48965162  0.86955798    -0.22200
C869        C  0.24263634  0.47454511  0.87311537     0.20800
C870        C  0.24274711  0.44454325  0.87296640     0.25900
C871        C  0.21688530  0.42916242  0.86905082    -0.22100
C872        C  0.19130034  0.44441098  0.86335188     0.20800
F873        F  0.16609907  0.43050706  0.85791997    -0.12100
F874        F  0.16590563  0.48810494  0.85871023    -0.14400
F875        F  0.26800025  0.43067768  0.87793612    -0.14400
F876        F  0.26776102  0.48868255  0.87823604    -0.12100
C877        C  0.16633523  0.58657961  0.77296580     0.25900
C878        C  0.16332739  0.60357965  0.79997196    -0.22200
C879        C  0.14959227  0.63027849  0.79756642     0.20800
C880        C  0.14104976  0.64073077  0.76832773     0.25900
C881        C  0.14591396  0.62453670  0.74090215    -0.22100
C882        C  0.15765834  0.59689719  0.74377310     0.20800
F883        F  0.16153836  0.58005350  0.71823453    -0.12100
F884        F  0.17843510  0.56014361  0.77468135    -0.14400
F885        F  0.12951030  0.66742487  0.76683502    -0.14400
F886        F  0.14631632  0.64723067  0.82313697    -0.12100
C887        C  0.27796095  0.94556148  0.64959133     0.25900
C888        C  0.30350227  0.92967814  0.64595046    -0.22200
C889        C  0.32981445  0.94445268  0.64315905     0.20800
C890        C  0.33068620  0.97425327  0.64429775     0.25900
C891        C  0.30522835  0.99023366  0.64790909    -0.22100
C892        C  0.27880487  0.97555527  0.65041261     0.20800
F893        F  0.25370899  0.99012897  0.65364352    -0.12100
F894        F  0.25210810  0.93219180  0.65238055    -0.14400
F895        F  0.35668282  0.98734261  0.64145377    -0.14400
F896        F  0.35499320  0.93015826  0.63917965    -0.12100
C897        C  0.18516787  0.76371143  0.65328723     0.25900
C898        C  0.19162235  0.73604246  0.66438919    -0.22200
C899        C  0.21930336  0.73044396  0.67612646     0.20800
C900        C  0.24074504  0.75124842  0.67438716     0.25900
C901        C  0.23488365  0.77828300  0.66128213    -0.22100
C902        C  0.20663844  0.78468549  0.65179232     0.20800
F903        F  0.20007233  0.81069814  0.63948927    -0.12100
F904        F  0.15853717  0.77012001  0.64230727    -0.14400
F905        F  0.26744765  0.74458051  0.68499583    -0.14400
F906        F  0.22595567  0.70452222  0.68864065    -0.12100
C907        C  0.49303839  0.77837000  0.88701270     0.25900
C908        C  0.47721576  0.75339479  0.88009889    -0.22200
C909        C  0.49228241  0.72835935  0.87156787     0.20800
C910        C  0.52243649  0.72835710  0.87015229     0.25900
C911        C  0.53813582  0.75340092  0.87715631    -0.22100
C912        C  0.52300636  0.77837261  0.88553240     0.20800
F913        F  0.53717942  0.80288530  0.89312625    -0.12100
F914        F  0.47963296  0.80297147  0.89566515    -0.14400
F915        F  0.53617298  0.70387423  0.86171020    -0.14400
F916        F  0.47792885  0.70384328  0.86443130    -0.12100
C917        C  0.29568907  0.69187527  0.85992544     0.25900
C918        C  0.32343369  0.68626997  0.87161267    -0.22200
C919        C  0.33012248  0.65837692  0.88183704     0.20800
C920        C  0.30909223  0.63689902  0.88169021     0.25900
C921        C  0.28095545  0.64304708  0.87169665    -0.22100
C922        C  0.27465407  0.67052301  0.86010132     0.20800
F923        F  0.24802192  0.67682481  0.84900926    -0.12100
F924        F  0.28869661  0.71815774  0.84858927    -0.14400
F925        F  0.31590195  0.61053543  0.89290328    -0.14400
F926        F  0.35656105  0.65217120  0.89346683    -0.12100
C927        C  0.37621048  0.78830758  0.76774931     0.25900
C928        C  0.36219084  0.79760857  0.79519973    -0.22200
C929        C  0.33945627  0.81730669  0.79255867     0.20800
C930        C  0.33052958  0.82695375  0.76317123     0.25900
C931        C  0.34394069  0.81689596  0.73564991    -0.22100
C932        C  0.36715518  0.79777338  0.73836838     0.20800
F933        F  0.38065629  0.78742022  0.71257337    -0.12100
F934        F  0.39843428  0.76948540  0.76912820    -0.14400
F935        F  0.30814968  0.84559788  0.76179091    -0.14400
F936        F  0.32495748  0.82640305  0.81828130    -0.12100
C937        C  0.02567281  0.64079193  0.39117173     0.25900
C938        C  0.04131390  0.66598577  0.38462060    -0.22200
C939        C  0.02609092  0.69091349  0.37615360     0.20800
C940        C  0.99596227  0.69084706  0.37523421     0.25900
C941        C  0.98037038  0.66588721  0.38285911    -0.22100
C942        C  0.99566707  0.64076068  0.39037127     0.20800
F943        F  0.98169125  0.61591267  0.39708897    -0.12100
F944        F  0.03929796  0.61592926  0.39842558    -0.14400
F945        F  0.98214637  0.71528999  0.36684883    -0.14400
F946        F  0.04025859  0.71545988  0.36869775    -0.12100
C947        C  0.14409233  0.62384397  0.50352011     0.25900
C948        C  0.15377936  0.64794723  0.48662889    -0.22200
C949        C  0.16664776  0.67071503  0.50307202     0.20800
C950        C  0.16707628  0.67085611  0.53566825     0.25900
C951        C  0.15474615  0.64818696  0.55275686    -0.22100
C952        C  0.14461469  0.62395133  0.53645016     0.20800
F953        F  0.13306411  0.60146493  0.55225300    -0.12100
F954        F  0.13207374  0.60123727  0.48837715    -0.14400
F955        F  0.17845423  0.69394839  0.55058612    -0.14400
F956        F  0.17785165  0.69357749  0.48755873    -0.12100
C957        C  0.24217168  0.47807127  0.16522058     0.25900
C958        C  0.21699641  0.49337614  0.15780919    -0.22200
C959        C  0.19176146  0.47804067  0.15052329     0.20800
C960        C  0.19174306  0.44819877  0.15029096     0.25900
C961        C  0.21701600  0.43282126  0.15710078    -0.22100
C962        C  0.24219787  0.44808655  0.16480685     0.20800
F963        F  0.26696080  0.43410068  0.17183544    -0.12100
F964        F  0.26690348  0.49202874  0.17263318    -0.14400
F965        F  0.16694830  0.43447849  0.14256386    -0.14400
F966        F  0.16702384  0.49180631  0.14283309    -0.12100
C967        C  0.21740717  0.56350113  0.03428703     0.25900
C968        C  0.20056405  0.58339632  0.05092443    -0.22200
C969        C  0.18208947  0.60165643  0.03409061     0.20800
C970        C  0.18170149  0.60097775  0.00116355     0.25900
C971        C  0.19977181  0.58199515  0.98464422    -0.22100
C972        C  0.21706509  0.56284416  0.00176025     0.20800
F973        F  0.23410975  0.54340758  0.98706386    -0.12100
F974        F  0.23459444  0.54453689  0.04949130    -0.14400
F975        F  0.16460515  0.61968318  0.98554358    -0.14400
F976        F  0.16537316  0.62096569  0.04935181    -0.12100
C977        C  0.18314044  0.59019655  0.26708056     0.25900
C978        C  0.17276981  0.60347849  0.23967183    -0.22200
C979        C  0.15104491  0.62422550  0.24235450     0.20800
C980        C  0.14142525  0.63301395  0.27180813     0.25900
C981        C  0.15331856  0.62125044  0.29933936    -0.22100
C982        C  0.17351899  0.59897800  0.29657293     0.20800
F983        F  0.18488044  0.58636303  0.32236057    -0.12100
F984        F  0.20312891  0.56903397  0.26548052    -0.14400
F985        F  0.12104314  0.65380005  0.27321281    -0.14400
F986        F  0.14000104  0.63711056  0.21655806    -0.12100
C987        C  0.32909655  0.94635124  0.39297787     0.25900
C988        C  0.30440768  0.93061384  0.38452117    -0.22200
C989        C  0.27969856  0.94559138  0.37467944     0.20800
C990        C  0.27990183  0.97558810  0.37294132     0.25900
C991        C  0.30481904  0.99113399  0.38090966    -0.22100
C992        C  0.32930446  0.97615533  0.39112841     0.20800
F993        F  0.35349718  0.99033901  0.40003304    -0.12100
F994        F  0.35324253  0.93301765  0.40330814    -0.14400
F995        F  0.25587573  0.98932867  0.36292713    -0.14400
F996        F  0.25541462  0.93130089  0.36634412    -0.12100
C997        C  0.34788018  0.83275642  0.53267290     0.25900
C998        C  0.32578010  0.81813194  0.54860509    -0.22200
C999        C  0.30586805  0.80190468  0.53133934     0.20800
C1000       C  0.30638197  0.80232945  0.49874786     0.25900
C1001       C  0.32665442  0.81922611  0.48266212    -0.22100
C1002       C  0.34824870  0.83341205  0.49981828     0.20800
F1003       F  0.36808225  0.84994160  0.48498624    -0.12100
F1004       F  0.36745698  0.84853404  0.54877890    -0.14400
F1005       F  0.28613498  0.78716663  0.48287499    -0.14400
F1006       F  0.28497335  0.78661479  0.54608369    -0.12100
C1007       C  0.24756893  0.74632992  0.36992134     0.25900
C1008       C  0.24030491  0.77551212  0.37280496    -0.22200
C1009       C  0.21103471  0.78305086  0.37517956     0.20800
C1010       C  0.18968455  0.76178714  0.37611573     0.25900
C1011       C  0.19717626  0.73254652  0.37473142    -0.22100
C1012       C  0.22635603  0.72519146  0.37089821     0.20800
F1013       F  0.23470430  0.69737617  0.36865287    -0.12100
F1014       F  0.27539173  0.73793166  0.36676451    -0.14400
F1015       F  0.16178145  0.76991195  0.37913473    -0.14400
F1016       F  0.20300840  0.81094768  0.37745281    -0.12100
C1017       C  0.49577063  0.73205013  0.14776726     0.25900
C1018       C  0.48082371  0.75807454  0.14385965    -0.22200
C1019       C  0.49670350  0.78356115  0.14007637     0.20800
C1020       C  0.52667700  0.78314334  0.14052138     0.25900
C1021       C  0.54168661  0.75722993  0.14485859    -0.22100
C1022       C  0.52588176  0.73162289  0.14814010     0.20800
F1023       F  0.53945595  0.70608126  0.15175156    -0.12100
F1024       F  0.48135276  0.70691319  0.15129912    -0.14400
F1025       F  0.54089860  0.80835357  0.13661803    -0.14400
F1026       F  0.48334121  0.80918590  0.13617971    -0.12100
C1027       C  0.37358872  0.80047885  0.03056639     0.25900
C1028       C  0.36672398  0.77585238  0.04807923    -0.22200
C1029       C  0.35653846  0.75139368  0.03237444     0.20800
C1030       C  0.35623977  0.75033500  0.99986906     0.25900
C1031       C  0.36597687  0.77380952  0.98206729    -0.22100
C1032       C  0.37323636  0.79946795  0.99765504     0.20800
F1033       F  0.38194606  0.82282372  0.98123097    -0.12100
F1034       F  0.38269491  0.82469601  0.04512994    -0.14400
F1035       F  0.34752879  0.72566464  0.98586008    -0.14400
F1036       F  0.34798581  0.72780541  0.04858368    -0.12100
C1037       C  0.31218060  0.64252157  0.15172199     0.25900
C1038       C  0.28284132  0.64976928  0.15391616    -0.22200
C1039       C  0.27511187  0.67885270  0.15604715     0.20800
C1040       C  0.29610603  0.70017842  0.15608357     0.25900
C1041       C  0.32546353  0.69306991  0.15369717    -0.22100
C1042       C  0.33329187  0.66396771  0.15151174     0.20800
F1043       F  0.36129795  0.65616567  0.14852268    -0.12100
F1044       F  0.32049371  0.61474276  0.14894145    -0.14400
F1045       F  0.28743065  0.72790068  0.15823595    -0.14400
F1046       F  0.24710583  0.68690215  0.15815787    -0.12100
C1047       C  0.35135869  0.83697247  0.27145925     0.25900
C1048       C  0.35467116  0.81895222  0.29764574    -0.22200
C1049       C  0.36835391  0.79238038  0.29377447     0.20800
C1050       C  0.37681853  0.78317479  0.26406243     0.25900
C1051       C  0.37182806  0.80037393  0.23741927    -0.22100
C1052       C  0.35975815  0.82776705  0.24163272     0.20800
F1053       F  0.35543044  0.84546041  0.21687914    -0.12100
F1054       F  0.33954591  0.86342296  0.27464579    -0.14400
F1055       F  0.38869006  0.75670333  0.26139557    -0.14400
F1056       F  0.37192863  0.77439477  0.31843246    -0.12100
loop_ 
_geom_bond_atom_site_label_1 
_geom_bond_atom_site_label_2 
_geom_bond_distance 
_geom_bond_site_symmetry_2 
_ccdc_geom_bond_type 
O1            C4   1.267       .  A
O1           Cd6   2.455       .  S
C2           O11   1.266       .  A
C2            O7   1.269       .  A
C2         C1041   1.480       .  S
O3            C9   1.272       .  A
O3           Cd6   2.500       .  S
C4           O12   1.267       .  A
C4         C1018   1.481       .  S
C5           O10   1.272       .  A
C5            O8   1.263       .  A
C5         C1028   1.480       .  S
Cd6          O13   2.413       .  S
Cd6          O12   2.425       .  S
Cd6          O11   2.404       .  S
Cd6           O7   2.464       .  S
Cd6          O10   2.532       .  S
Cd6           O8   2.382       .  S
C9           O13   1.264       .  A
C9         C1051   1.488       .  S
O14          C17   1.268       .  A
O14         Cd19   2.478       .  S
C15          O24   1.266       .  A
C15          O20   1.270       .  A
C15        C1008   1.484       .  S
O16          C22   1.270       .  A
O16         Cd19   2.484       .  S
C17          O25   1.265       .  A
C17         C988   1.482       .  S
C18          O23   1.269       .  A
C18          O21   1.263       .  A
C18        C1001   1.480       .  S
Cd19         O26   2.433       .  S
Cd19         O25   2.416       .  S
Cd19         O24   2.416       .  S
Cd19         O20   2.478       .  S
Cd19         O23   2.517       .  S
Cd19         O21   2.417       .  S
C22          O26   1.264       .  A
C22        C1048   1.481       .  S
O27          C30   1.270       .  A
O27         Cd32   2.447       .  S
C28          O37   1.266       .  A
C28          O33   1.269       .  A
C28        C1038   1.479       .  S
O29          C35   1.273       .  A
O29         Cd32   2.521       .  S
C30          O38   1.267       .  A
C30         C958   1.478       .  S
C31          O36   1.273       .  A
C31          O34   1.264       .  A
C31         C978   1.483       .  S
Cd32         O39   2.383       .  S
Cd32         O38   2.398       .  S
Cd32         O37   2.413       .  S
Cd32         O33   2.459       .  S
Cd32         O36   2.485       .  S
Cd32         O34   2.414       .  S
C35          O39   1.263       .  A
C35         C968   1.485       .  S
O40          C43   1.268       .  A
O40         Cd45   2.473       .  S
C41          O50   1.266       .  A
C41          O46   1.270       .  A
C41        C1011   1.485       .  S
O42          C48   1.271       .  A
O42         Cd45   2.528       .  S
C43          O51   1.265       .  A
C43         C938   1.485       .  S
C44          O49   1.271       .  A
C44          O47   1.263       .  A
C44         C981   1.485       .  S
Cd45         O52   2.413       .  S
Cd45         O51   2.431       .  S
Cd45         O50   2.417       .  S
Cd45         O46   2.483       .  S
Cd45         O49   2.496       .  S
Cd45         O47   2.413       .  S
C48          O52   1.264       .  A
C48         C948   1.485       .  S
O53          C56   1.268       .  A
O53         Cd58   2.475       .  S
C54          O63   1.265       .  A
C54          O59   1.269       .  A
C54         C918   1.478       .  S
O55          C61   1.270       .  A
O55         Cd58   2.528       .  S
C56          O64   1.266       .  A
C56         C908   1.485       .  S
C57          O62   1.271       .  A
C57          O60   1.263       .  A
C57         C928   1.483       .  S
Cd58         O65   2.402       .  S
Cd58         O64   2.433       .  S
Cd58         O63   2.421       .  S
Cd58         O59   2.462       .  S
Cd58         O62   2.485       .  S
Cd58         O60   2.414       .  S
C61          O65   1.263       .  A
C61        C1031   1.484       .  S
O66          C69   1.267       .  A
O66         Cd71   2.469       .  S
C67          O76   1.266       .  A
C67          O72   1.269       .  A
C67         C901   1.474       .  S
O68          C74   1.269       .  A
O68         Cd71   2.511       .  S
C69          O77   1.264       .  A
C69         C888   1.479       .  S
C70          O75   1.271       .  A
C70          O73   1.264       .  A
C70         C931   1.484       .  S
Cd71         O78   2.413       .  S
Cd71         O77   2.404       .  S
Cd71         O76   2.402       .  S
Cd71         O72   2.449       .  S
Cd71         O75   2.476       .  S
Cd71         O73   2.417       .  S
C74          O78   1.263       .  A
C74         C998   1.477       .  S
O79          C82   1.268       .  A
O79         Cd84   2.454       .  S
C80          O89   1.264       .  A
C80          O85   1.266       .  A
C80         C921   1.474       .  S
O81          C87   1.271       .  A
O81         Cd84   2.495       .  S
C82          O90   1.268       .  A
C82         C868   1.476       .  S
C83          O88   1.270       .  A
C83          O86   1.262       .  A
C83         C971   1.487       .  S
Cd84         O91   2.413       .  S
Cd84         O90   2.414       .  S
Cd84         O89   2.426       .  S
Cd84         O85   2.463       .  S
Cd84         O88   2.531       .  S
Cd84         O86   2.405       .  S
C87          O91   1.263       .  A
C87         C878   1.479       .  S
O92          C95   1.268       .  A
O92         Cd97   2.451       .  S
C93         O102   1.265       .  A
C93          O98   1.266       .  A
C93         C858   1.476       .  S
O94         C100   1.270       .  A
O94         Cd97   2.531       .  S
C95         O103   1.267       .  A
C95         C898   1.475       .  S
C96         O101   1.272       .  A
C96          O99   1.264       .  A
C96         C881   1.486       .  S
Cd97        O104   2.411       .  S
Cd97        O103   2.406       .  S
Cd97        O102   2.410       .  S
Cd97         O98   2.447       .  S
Cd97        O101   2.480       .  S
Cd97         O99   2.432       .  S
C100        O104   1.262       .  A
C100        C951   1.484       .  S
O105        C108   1.267       .  A
O105       Cd110   2.487       .  S
C106        O115   1.267       .  A
C106        O111   1.270       .  A
C106        C821   1.485       .  S
O107        C113   1.270       .  A
O107       Cd110   2.521       .  S
C108        O116   1.265       .  A
C108        C838   1.487       .  S
C109        O114   1.270       .  A
C109        O112   1.263       .  A
C109        C848   1.485       .  S
Cd110       O117   2.384       .  S
Cd110       O116   2.441       .  S
Cd110       O115   2.429       .  S
Cd110       O111   2.473       .  S
Cd110       O114   2.499       .  S
Cd110       O112   2.418       .  S
C113        O117   1.263       .  A
C113        C831   1.474       .  S
O118        C121   1.270       .  A
O118       Cd123   2.468       .  S
C119        O128   1.265       .  A
C119        O124   1.269       .  A
C119        C941   1.484       .  S
O120        C126   1.270       .  A
O120       Cd123   2.528       .  S
C121        O129   1.267       .  A
C121        C808   1.483       .  S
C122        O127   1.271       .  A
C122        O125   1.264       .  A
C122        C851   1.483       .  S
Cd123       O130   2.417       .  S
Cd123       O129   2.428       .  S
Cd123       O128   2.421       .  S
Cd123       O124   2.474       .  S
Cd123       O127   2.478       .  S
Cd123       O125   2.429       .  S
C126        O130   1.263       .  A
C126        C798   1.484       .  S
O131        C134   1.271       .  A
O131       Cd136   2.459       .  S
C132        O141   1.265       .  A
C132        O137   1.268       .  A
C132        C841   1.487       .  S
O133        C139   1.272       .  A
O133       Cd136   2.536       .  S
C134        O142   1.267       .  A
C134       C1021   1.481       .  S
C135        O140   1.271       .  A
C135        O138   1.264       .  A
C135        C788   1.488       .  S
Cd136       O143   2.389       .  S
Cd136       O142   2.403       .  S
Cd136       O141   2.427       .  S
Cd136       O137   2.487       .  S
Cd136       O140   2.490       .  S
Cd136       O138   2.436       .  S
C139        O143   1.263       .  A
C139        C778   1.481       .  S
O144        C147   1.269       .  A
O144       Cd149   2.463       .  S
C145        O154   1.267       .  A
C145        O150   1.270       .  A
C145        C811   1.480       .  S
O146        C152   1.272       .  A
O146       Cd149   2.528       .  S
C147        O155   1.265       .  A
C147        C758   1.482       .  S
C148        O153   1.272       .  A
C148        O151   1.264       .  A
C148        C791   1.486       .  S
Cd149       O156   2.383       .  S
Cd149       O155   2.420       .  S
Cd149       O154   2.426       .  S
Cd149       O150   2.469       .  S
Cd149       O153   2.491       .  S
Cd149       O151   2.417       .  S
C152        O156   1.262       .  A
C152        C768   1.482       .  S
O157        C160   1.268       .  A
O157       Cd162   2.493       .  S
C158        O167   1.267       .  A
C158        O163   1.269       .  A
C158        C911   1.483       .  S
O159        C165   1.270       .  A
O159       Cd162   2.531       .  S
C160        O168   1.263       .  A
C160        C741   1.482       .  S
C161        O166   1.270       .  A
C161        O164   1.264       .  A
C161        C748   1.486       .  S
Cd162       O169   2.406       .  S
Cd162       O168   2.404       .  S
Cd162       O167   2.417       .  S
Cd162       O163   2.478       .  S
Cd162       O166   2.488       .  S
Cd162       O164   2.433       .  S
C165        O169   1.263       .  A
C165        C781   1.483       .  S
O170        C173   1.268       .  A
O170       Cd175   2.461       .  S
C171        O180   1.264       .  A
C171        O176   1.270       .  A
C171        C728   1.479       .  S
O172        C178   1.270       .  A
O172       Cd175   2.472       .  S
C173        O181   1.265       .  A
C173        C718   1.480       .  S
C174        O179   1.270       .  A
C174        O177   1.264       .  A
C174        C771   1.479       .  S
Cd175       O182   2.436       .  S
Cd175       O181   2.414       .  S
Cd175       O180   2.394       .  S
Cd175       O176   2.488       .  S
Cd175       O179   2.517       .  S
Cd175       O177   2.397       .  S
C178        O182   1.265       .  A
C178        C751   1.483       .  S
O183        C186   1.269       .  A
O183       Cd188   2.442       .  S
C184        O193   1.264       .  A
C184        O189   1.267       .  A
C184        C738   1.482       .  S
O185        C191   1.270       .  A
O185       Cd188   2.517       .  S
C186        O194   1.267       .  A
C186        C698   1.479       .  S
C187        O192   1.270       .  A
C187        O190   1.264       .  A
C187        C711   1.484       .  S
Cd188       O195   2.398       .  S
Cd188       O194   2.420       .  S
Cd188       O193   2.411       .  S
Cd188       O189   2.486       .  S
Cd188       O192   2.484       .  S
Cd188       O190   2.429       .  S
C191        O195   1.263       .  A
C191        C828   1.476       .  S
O196        C199   1.267       .  A
O196       Cd201   2.450       .  S
C197        O206   1.266       .  A
C197        O202   1.269       .  A
C197        C731   1.479       .  S
O198        C204   1.270       .  A
O198       Cd201   2.527       .  S
C199        O207   1.265       .  A
C199        C861   1.476       .  S
C200        O205   1.271       .  A
C200        O203   1.264       .  A
C200        C708   1.488       .  S
Cd201       O208   2.421       .  S
Cd201       O207   2.409       .  S
Cd201       O206   2.396       .  S
Cd201       O202   2.472       .  S
Cd201       O205   2.486       .  S
Cd201       O203   2.437       .  S
C204        O208   1.262       .  A
C204        C801   1.483       .  S
O209        C212   1.270       .  A
O209       Cd214   2.458       .  S
C210        O219   1.263       .  A
C210        O215   1.267       .  A
C210        C678   1.482       .  S
O211        C217   1.270       .  A
O211       Cd214   2.521       .  S
C212        O220   1.267       .  A
C212        C991   1.478   1_545  S
C213        O218   1.270       .  A
C213        O216   1.263       .  A
C213        C688   1.484       .  S
Cd214       O221   2.408       .  S
Cd214       O220   2.410       .  S
Cd214       O219   2.418       .  S
Cd214       O215   2.481       .  S
Cd214       O218   2.487       .  S
Cd214       O216   2.440       .  S
C217        O221   1.263       .  A
C217        C668   1.478       .  S
O222        C225   1.270       .  A
O222       Cd227   2.463       .  S
C223        O232   1.266       .  A
C223        O228   1.268       .  A
C223        C638   1.478       .  S
O224        C230   1.272       .  A
O224       Cd227   2.485       .  S
C225        O233   1.266       .  A
C225        C661   1.480       .  S
C226        O231   1.271       .  A
C226        O229   1.263       .  A
C226        C648   1.480       .  S
Cd227       O234   2.421       .  S
Cd227       O233   2.402       .  S
Cd227       O232   2.418       .  S
Cd227       O228   2.463       .  S
Cd227       O231   2.516       .  S
Cd227       O229   2.402       .  S
C230        O234   1.264       .  A
C230        C691   1.487       .  S
O235        C238   1.270       .  A
O235       Cd240   2.453       .  S
C236        O245   1.263       .  A
C236        O241   1.268       .  A
C236        C681   1.481       .  S
O237        C243   1.270       .  A
O237       Cd240   2.493       .  S
C238        O246   1.268       .  A
C238        C608   1.481       .  S
C239        O244   1.270       .  A
C239        O242   1.263       .  A
C239        C618   1.481       .  S
Cd240       O247   2.436       .  S
Cd240       O246   2.407       .  S
Cd240       O245   2.412       .  S
Cd240       O241   2.488       .  S
Cd240       O244   2.520       .  S
Cd240       O242   2.424       .  S
C243        O247   1.263       .  A
C243        C631   1.485       .  S
O248        C251   1.268       .  A
O248       Cd253   2.473       .  S
C249        O258   1.266       .  A
C249        O254   1.270       .  A
C249        C961   1.479       .  S
O250        C256   1.271       .  A
O250       Cd253   2.522       .  S
C251        O259   1.265       .  A
C251        C658   1.480       .  S
C252        O257   1.272       .  A
C252        O255   1.263       .  A
C252        C628   1.486       .  S
Cd253       O260   2.415       .  S
Cd253       O259   2.413       .  S
Cd253       O258   2.408       .  S
Cd253       O254   2.458       .  S
Cd253       O257   2.494       .  S
Cd253       O255   2.420       .  S
C256        O260   1.264       .  A
C256        C601   1.484       .  S
O261        C264   1.269       .  A
O261       Cd266   2.464       .  S
C262        O271   1.266       .  A
C262        O267   1.270       .  A
C262        C578   1.482       .  S
O263        C269   1.270       .  A
O263       Cd266   2.487       .  S
C264        O272   1.265       .  A
C264        C568   1.480       .  S
C265        O270   1.271       .  A
C265        O268   1.264       .  A
C265        C651   1.482       .  S
Cd266       O273   2.439       .  S
Cd266       O272   2.423       .  S
Cd266       O271   2.403       .  S
Cd266       O267   2.480       .  S
Cd266       O270   2.510       .  S
Cd266       O268   2.403       .  S
C269        O273   1.265       .  A
C269        C591   1.486       .  S
O274        C277   1.267       .  A
O274       Cd279   2.474       .  S
C275        O284   1.267       .  A
C275        O280   1.270       .  A
C275        C891   1.480   1_545  S
O276        C282   1.270       .  A
O276       Cd279   2.530       .  S
C277        O285   1.264       .  A
C277        C558   1.483       .  S
C278        O283   1.271       .  A
C278        O281   1.264       .  A
C278        C588   1.487       .  S
Cd279       O286   2.410       .  S
Cd279       O285   2.424       .  S
Cd279       O284   2.407       .  S
Cd279       O280   2.454       .  S
Cd279       O283   2.491       .  S
Cd279       O281   2.439       .  S
C282        O286   1.262       .  A
C282        C671   1.481       .  S
O287        C290   1.270       .  A
O287       Cd292   2.453       .  S
C288        O297   1.265       .  A
C288        O293   1.267       .  A
C288        C581   1.483       .  S
O289        C295   1.271       .  A
O289       Cd292   2.536       .  S
C290        O298   1.267       .  A
C290        C871   1.479       .  S
C291        O296   1.272       .  A
C291        O294   1.263       .  A
C291        C548   1.485       .  S
Cd292       O299   2.413       .  S
Cd292       O298   2.407       .  S
Cd292       O297   2.428       .  S
Cd292       O293   2.477       .  S
Cd292       O296   2.503       .  S
Cd292       O294   2.410       .  S
C295        O299   1.263       .  A
C295        C598   1.486       .  S
O300        C303   1.272       .  A
O300       Cd305   2.459       .  S
C301        O310   1.264       .  A
C301        O306   1.270       .  A
C301        C561   1.484       .  S
O302        C308   1.270       .  A
O302       Cd305   2.511       .  S
C303        O311   1.266       .  A
C303        C538   1.481       .  S
C304        O309   1.271       .  A
C304        O307   1.264       .  A
C304        C551   1.481       .  S
Cd305       O312   2.424       .  S
Cd305       O311   2.406       .  S
Cd305       O310   2.410       .  S
Cd305       O306   2.488       .  S
Cd305       O309   2.475       .  S
Cd305       O307   2.424       .  S
C308        O312   1.264       .  A
C308        C621   1.479       .  S
O313        C316   1.268       .  A
O313       Cd318   2.488       .  S
C314        O323   1.266       .  A
C314        O319   1.270       .  A
C314        C518   1.482       .  S
O315        C321   1.270       .  A
O315       Cd318   2.530       .  S
C316        O324   1.265       .  A
C316        C818   1.484       .  S
C317        O322   1.271       .  A
C317        O320   1.265       .  A
C317        C528   1.489       .  S
Cd318       O325   2.420       .  S
Cd318       O324   2.424       .  S
Cd318       O323   2.420       .  S
Cd318       O319   2.474       .  S
Cd318       O322   2.491       .  S
Cd318       O320   2.435       .  S
C321        O325   1.263       .  A
C321        C511   1.486       .  S
O326        C329   1.271       .  A
O326       Cd331   2.471       .  S
C327        O336   1.264       .  A
C327        O332   1.268       .  A
C327        C498   1.486       .  S
O328        C334   1.270       .  A
O328       Cd331   2.519       .  S
C329        O337   1.266       .  A
C329        C611   1.482       .  S
C330        O335   1.271       .  A
C330        O333   1.264       .  A
C330        C531   1.487       .  S
Cd331       O338   2.431       .  S
Cd331       O337   2.408       .  S
Cd331       O336   2.431       .  S
Cd331       O332   2.493       .  S
Cd331       O335   2.496       .  S
Cd331       O333   2.431       .  S
C334        O338   1.264       .  A
C334        C491   1.480       .  S
O339        C342   1.266       .  A
O339       Cd344   2.467       .  S
C340        O349   1.267       .  A
C340        O345   1.269       .  A
C340        C521   1.480       .  S
O341        C347   1.271       .  A
O341       Cd344   2.488       .  S
C342        O350   1.265       .  A
C342        C641   1.479       .  S
C343        O348   1.269       .  A
C343        O346   1.262       .  A
C343        C468   1.482       .  S
Cd344       O351   2.423       .  S
Cd344       O350   2.433       .  S
Cd344       O349   2.425       .  S
Cd344       O345   2.458       .  S
Cd344       O348   2.529       .  S
Cd344       O346   2.401       .  S
C347        O351   1.263       .  A
C347        C478   1.483       .  S
O352        C355   1.267       .  A
O352       Cd357   2.448       .  S
C353        O362   1.266       .  A
C353        O358   1.269       .  A
C353        C501   1.486       .  S
O354        C360   1.271       .  A
O354       Cd357   2.489       .  S
C355        O363   1.266       .  A
C355        C761   1.481   1_545  S
C356        O361   1.271       .  A
C356        O359   1.263       .  A
C356        C458   1.478       .  S
Cd357       O364   2.422       .  S
Cd357       O363   2.442       .  S
Cd357       O362   2.420       .  S
Cd357       O358   2.477       .  S
Cd357       O361   2.523       .  S
Cd357       O359   2.394       .  S
C360        O364   1.264       .  A
C360        C481   1.486       .  S
O365        C368   1.270       .  A
O365       Cd370   2.476       .  S
C366        O375   1.266       .  A
C366        O371   1.268       .  A
C366        C701   1.478       .  S
O367        C373   1.271       .  A
O367       Cd370   2.531       .  S
C368        O376   1.266       .  A
C368        C438   1.483       .  S
C369        O374   1.272       .  A
C369        O372   1.265       .  A
C369        C448   1.485       .  S
Cd370       O377   2.404       .  S
Cd370       O376   2.408       .  S
Cd370       O375   2.428       .  S
Cd370       O371   2.450       .  S
Cd370       O374   2.477       .  S
Cd370       O372   2.425       .  S
C373        O377   1.263       .  A
C373        C508   1.485       .  S
O378        C381   1.269       .  A
O378       Cd383   2.481       .  S
C379        O388   1.268       .  A
C379        O384   1.270       .  A
C379        C541   1.481       .  S
O380        C386   1.271       .  A
O380       Cd383   2.519       .  S
C381        O389   1.264       .  A
C381        C428   1.482       .  S
C382        O387   1.273       .  A
C382        O385   1.264       .  A
C382        C451   1.484       .  S
Cd383       O390   2.414       .  S
Cd383       O389   2.417       .  S
Cd383       O388   2.419       .  S
Cd383       O384   2.444       .  S
Cd383       O387   2.493       .  S
Cd383       O385   2.407       .  S
C386        O390   1.263       .  A
C386        C488   1.481       .  S
O391        C394   1.267       .  A
O391       Cd396   2.457       .  S
C392        O401   1.266       .  A
C392        O397   1.269       .  A
C392        C441   1.483       .  S
O393        C399   1.270       .  A
O393       Cd396   2.513       .  S
C394        O402   1.265       .  A
C394        C571   1.479       .  S
C395        O400   1.270       .  A
C395        O398   1.263       .  A
C395        C418   1.484       .  S
Cd396       O403   2.398       .  S
Cd396       O402   2.433       .  S
Cd396       O401   2.418       .  S
Cd396       O397   2.471       .  S
Cd396       O400   2.480       .  S
Cd396       O398   2.423       .  S
C399        O403   1.263       .  A
C399        C471   1.481       .  S
O404        C407   1.267       .  A
O404       Cd409   2.461       .  S
C405        O414   1.266       .  A
C405        O410   1.269       .  A
C405        C431   1.483       .  S
O406        C412   1.270       .  A
O406       Cd409   2.528       .  S
C407        O415   1.265       .  A
C407        C721   1.479   1_545  S
C408        O413   1.271       .  A
C408        O411   1.263       .  A
C408        C421   1.483       .  S
Cd409       O416   2.395       .  S
Cd409       O415   2.418       .  S
Cd409       O414   2.425       .  S
Cd409       O410   2.459       .  S
Cd409       O413   2.477       .  S
Cd409       O411   2.417       .  S
C412        O416   1.262       .  A
C412        C461   1.482       .  S
C417        C418   1.406       .  A
C417        C422   1.398       .  A
C417        F424   1.358       .  S
C418        C419   1.411       .  A
C419        C420   1.398       .  A
C419        F426   1.358       .  S
C420        C421   1.405       .  A
C420        F425   1.358       .  S
C421        C422   1.411       .  A
C422        F423   1.358       .  S
C427        C428   1.408       .  A
C427        C432   1.400       .  A
C427        F434   1.358       .  S
C428        C429   1.409       .  A
C429        C430   1.394       .  A
C429        F436   1.358       .  S
C430        C431   1.408       .  A
C430        F435   1.358       .  S
C431        C432   1.409       .  A
C432        F433   1.358       .  S
C437        C438   1.408       .  A
C437        C442   1.393       .  A
C437        F444   1.358       .  S
C438        C439   1.409       .  A
C439        C440   1.402       .  A
C439        F446   1.358       .  S
C440        C441   1.409       .  A
C440        F445   1.358       .  S
C441        C442   1.408       .  A
C442        F443   1.358       .  S
C447        C448   1.412       .  A
C447        C452   1.400       .  A
C447        F454   1.358       .  S
C448        C449   1.405       .  A
C449        C450   1.397       .  A
C449        F456   1.358       .  S
C450        C451   1.411       .  A
C450        F455   1.358       .  S
C451        C452   1.406       .  A
C452        F453   1.358       .  S
C457        C458   1.408       .  A
C457        C462   1.408       .  A
C457        F464   1.357       .  S
C458        C459   1.405       .  A
C459        C460   1.391       .  A
C459        F466   1.359       .  S
C460        C461   1.407       .  A
C460        F465   1.359       .  S
C461        C462   1.409       .  A
C462        F463   1.357       .  S
C467        C468   1.409       .  A
C467        C472   1.407   1_554  A
C467        F474   1.357       .  S
C468        C469   1.407       .  A
C469        C470   1.392   1_554  A
C469        F476   1.359       .  S
C470        C471   1.406       .  A
C470        F475   1.359       .  S
C471        C472   1.408       .  A
C472        F473   1.357       .  S
C477        C478   1.410       .  A
C477        C482   1.399       .  A
C477        F484   1.358       .  S
C478        C479   1.405       .  A
C479        C480   1.399       .  A
C479        F486   1.358       .  S
C480        C481   1.412       .  A
C480        F485   1.358       .  S
C481        C482   1.407       .  A
C482        F483   1.358       .  S
C487        C488   1.408       .  A
C487        C492   1.406       .  A
C487        F494   1.357       .  S
C488        C489   1.407       .  A
C489        C490   1.396       .  A
C489        F496   1.358       .  S
C490        C491   1.406       .  A
C490        F495   1.359       .  S
C491        C492   1.407       .  A
C492        F493   1.357       .  S
C497        C498   1.409       .  A
C497        C502   1.403       .  A
C497        F504   1.358       .  S
C498        C499   1.408       .  A
C499        C500   1.395       .  A
C499        F506   1.358       .  S
C500        C501   1.409       .  A
C500        F505   1.358       .  S
C501        C502   1.410       .  A
C502        F503   1.358       .  S
C507        C508   1.409   1_554  A
C507        C512   1.408       .  A
C507        F514   1.357   1_554  S
C508        C509   1.407   1_556  A
C509        C510   1.394       .  A
C509        F516   1.359   1_554  S
C510        C511   1.407       .  A
C510        F515   1.359       .  S
C511        C512   1.410       .  A
C512        F513   1.357       .  S
C517        C518   1.408       .  A
C517        C522   1.400       .  A
C517        F524   1.357       .  S
C518        C519   1.408       .  A
C519        C520   1.395       .  A
C519        F526   1.358       .  S
C520        C521   1.407       .  A
C520        F525   1.358       .  S
C521        C522   1.408       .  A
C522        F523   1.358       .  S
C527        C528   1.412       .  A
C527        C532   1.401       .  A
C527        F534   1.358       .  S
C528        C529   1.407       .  A
C529        C530   1.400       .  A
C529        F536   1.358       .  S
C530        C531   1.411       .  A
C530        F535   1.358       .  S
C531        C532   1.406       .  A
C532        F533   1.358       .  S
C537        C538   1.410       .  A
C537        C542   1.395   1_455  A
C537        F544   1.358       .  S
C538        C539   1.407       .  A
C539        C540   1.398   1_455  A
C539        F546   1.357       .  S
C540        C541   1.408       .  A
C540        F545   1.357       .  S
C541        C542   1.408       .  A
C542        F543   1.358       .  S
C547        C548   1.412       .  A
C547        C552   1.397       .  A
C547        F554   1.358       .  S
C548        C549   1.406       .  A
C549        C550   1.400       .  A
C549        F556   1.358       .  S
C550        C551   1.411       .  A
C550        F555   1.358       .  S
C551        C552   1.404       .  A
C552        F553   1.358       .  S
C557        C558   1.408       .  A
C557        C562   1.393       .  A
C557        F564   1.358       .  S
C558        C559   1.409       .  A
C559        C560   1.402       .  A
C559        F566   1.358       .  S
C560        C561   1.408       .  A
C560        F565   1.357       .  S
C561        C562   1.409       .  A
C562        F563   1.358       .  S
C567        C568   1.407       .  A
C567        C572   1.398       .  A
C567        F574   1.358       .  S
C568        C569   1.409       .  A
C569        C570   1.395       .  A
C569        F576   1.358       .  S
C570        C571   1.407       .  A
C570        F575   1.358       .  S
C571        C572   1.408       .  A
C572        F573   1.358       .  S
C577        C578   1.408       .  A
C577        C582   1.393       .  A
C577        F584   1.358       .  S
C578        C579   1.408       .  A
C579        C580   1.402       .  A
C579        F586   1.358       .  S
C580        C581   1.410       .  A
C580        F585   1.358       .  S
C581        C582   1.407       .  A
C582        F583   1.358       .  S
C587        C588   1.411       .  A
C587        C592   1.400       .  A
C587        F594   1.358       .  S
C588        C589   1.406       .  A
C589        C590   1.400       .  A
C589        F596   1.358       .  S
C590        C591   1.410       .  A
C590        F595   1.358       .  S
C591        C592   1.407       .  A
C592        F593   1.358       .  S
C597        C598   1.407       .  A
C597        C602   1.394   1_556  A
C597        F604   1.359       .  S
C598        C599   1.410       .  A
C599        C600   1.409   1_556  A
C599        F606   1.357       .  S
C600        C601   1.409       .  A
C600        F605   1.357       .  S
C601        C602   1.406       .  A
C602        F603   1.359       .  S
C607        C608   1.407       .  A
C607        C612   1.393   1_455  A
C607        F614   1.358       .  S
C608        C609   1.409       .  A
C609        C610   1.400   1_455  A
C609        F616   1.358       .  S
C610        C611   1.409       .  A
C610        F615   1.358       .  S
C611        C612   1.409       .  A
C612        F613   1.358       .  S
C617        C618   1.406       .  A
C617        C622   1.396       .  A
C617        F624   1.358       .  S
C618        C619   1.408       .  A
C619        C620   1.406       .  A
C619        F626   1.358       .  S
C620        C621   1.407       .  A
C620        F625   1.357       .  S
C621        C622   1.405       .  A
C622        F623   1.358       .  S
C627        C628   1.412       .  A
C627        C632   1.399       .  A
C627        F634   1.358       .  S
C628        C629   1.406       .  A
C629        C630   1.400       .  A
C629        F636   1.358       .  S
C630        C631   1.411       .  A
C630        F635   1.358       .  S
C631        C632   1.405       .  A
C632        F633   1.358       .  S
C637        C638   1.408       .  A
C637        C642   1.400       .  A
C637        F644   1.358       .  S
C638        C639   1.407       .  A
C639        C640   1.394       .  A
C639        F646   1.358       .  S
C640        C641   1.407       .  A
C640        F645   1.358       .  S
C641        C642   1.408       .  A
C642        F643   1.358       .  S
C647        C648   1.407       .  A
C647        C652   1.406   1_554  A
C647        F654   1.357       .  S
C648        C649   1.406       .  A
C649        C650   1.394   1_554  A
C649        F656   1.359       .  S
C650        C651   1.407       .  A
C650        F655   1.359       .  S
C651        C652   1.408       .  A
C652        F653   1.357       .  S
C657        C658   1.408       .  A
C657        C662   1.400       .  A
C657        F664   1.357       .  S
C658        C659   1.407       .  A
C659        C660   1.393       .  A
C659        F666   1.358       .  S
C660        C661   1.408       .  A
C660        F665   1.358       .  S
C661        C662   1.408       .  A
C662        F663   1.358       .  S
C667        C668   1.405       .  A
C667        C672   1.394       .  A
C667        F674   1.359       .  S
C668        C669   1.407       .  A
C669        C670   1.407       .  A
C669        F676   1.357       .  S
C670        C671   1.409       .  A
C670        F675   1.357       .  S
C671        C672   1.407       .  A
C672        F673   1.359       .  S
C677        C678   1.409       .  A
C677        C682   1.402       .  A
C677        F684   1.358       .  S
C678        C679   1.408       .  A
C679        C680   1.392       .  A
C679        F686   1.358       .  S
C680        C681   1.408       .  A
C680        F685   1.358       .  S
C681        C682   1.409       .  A
C682        F683   1.358       .  S
C687        C688   1.405       .  A
C687        C692   1.399       .  A
C687        F694   1.358       .  S
C688        C689   1.410       .  A
C689        C690   1.400       .  A
C689        F696   1.358       .  S
C690        C691   1.407       .  A
C690        F695   1.358       .  S
C691        C692   1.412       .  A
C692        F693   1.358       .  S
C697        C698   1.408       .  A
C697        C702   1.397       .  A
C697        F704   1.358       .  S
C698        C699   1.408       .  A
C699        C700   1.395       .  A
C699        F706   1.358       .  S
C700        C701   1.408       .  A
C700        F705   1.358       .  S
C701        C702   1.406       .  A
C702        F703   1.358       .  S
C707        C708   1.413       .  A
C707        C712   1.400       .  A
C707        F714   1.358       .  S
C708        C709   1.407       .  A
C709        C710   1.399       .  A
C709        F716   1.357       .  S
C710        C711   1.410       .  A
C710        F715   1.358       .  S
C711        C712   1.406       .  A
C712        F713   1.358       .  S
C717        C718   1.408       .  A
C717        C722   1.399       .  A
C717        F724   1.358       .  S
C718        C719   1.408       .  A
C719        C720   1.393       .  A
C719        F726   1.358       .  S
C720        C721   1.407       .  A
C720        F725   1.358       .  S
C721        C722   1.408       .  A
C722        F723   1.358       .  S
C727        C728   1.409       .  A
C727        C732   1.403       .  A
C727        F734   1.358       .  S
C728        C729   1.407       .  A
C729        C730   1.390       .  A
C729        F736   1.358       .  S
C730        C731   1.406       .  A
C730        F735   1.358       .  S
C731        C732   1.410       .  A
C732        F733   1.358       .  S
C737        C738   1.410       .  A
C737        C742   1.403       .  A
C737        F744   1.358       .  S
C738        C739   1.407       .  A
C739        C740   1.390       .  A
C739        F746   1.358       .  S
C740        C741   1.408       .  A
C740        F745   1.358       .  S
C741        C742   1.409       .  A
C742        F743   1.358       .  S
C747        C748   1.411       .  A
C747        C752   1.398       .  A
C747        F754   1.358       .  S
C748        C749   1.408       .  A
C749        C750   1.400       .  A
C749        F756   1.358       .  S
C750        C751   1.410       .  A
C750        F755   1.358       .  S
C751        C752   1.406       .  A
C752        F753   1.358       .  S
C757        C758   1.409       .  A
C757        C762   1.395       .  A
C757        F764   1.358       .  S
C758        C759   1.408       .  A
C759        C760   1.398       .  A
C759        F766   1.358       .  S
C760        C761   1.408       .  A
C760        F765   1.358       .  S
C761        C762   1.408       .  A
C762        F763   1.358       .  S
C767        C768   1.409       .  A
C767        C772   1.408       .  A
C767        F774   1.357       .  S
C768        C769   1.407       .  A
C769        C770   1.390       .  A
C769        F776   1.359       .  S
C770        C771   1.405       .  A
C770        F775   1.359       .  S
C771        C772   1.409       .  A
C772        F773   1.357       .  S
C777        C778   1.408       .  A
C777        C782   1.410   1_554  A
C777        F784   1.357       .  S
C778        C779   1.405       .  A
C779        C780   1.392   1_554  A
C779        F786   1.359       .  S
C780        C781   1.405       .  A
C780        F785   1.359       .  S
C781        C782   1.410       .  A
C782        F783   1.357       .  S
C787        C788   1.406       .  A
C787        C792   1.399       .  A
C787        F794   1.358       .  S
C788        C789   1.413       .  A
C789        C790   1.401       .  A
C789        F796   1.358       .  S
C790        C791   1.406       .  A
C790        F795   1.358       .  S
C791        C792   1.411       .  A
C792        F793   1.358       .  S
C797        C798   1.407       .  A
C797        C802   1.395       .  A
C797        F804   1.358       .  S
C798        C799   1.409       .  A
C799        C800   1.408       .  A
C799        F806   1.357       .  S
C800        C801   1.409       .  A
C800        F805   1.357       .  S
C801        C802   1.406       .  A
C802        F803   1.358       .  S
C807        C808   1.408       .  A
C807        C812   1.401       .  A
C807        F814   1.358       .  S
C808        C809   1.409       .  A
C809        C810   1.396       .  A
C809        F816   1.358       .  S
C810        C811   1.407       .  A
C810        F815   1.358       .  S
C811        C812   1.407       .  A
C812        F813   1.358       .  S
C817        C818   1.408       .  A
C817        C822   1.395       .  A
C817        F824   1.358       .  S
C818        C819   1.409       .  A
C819        C820   1.403       .  A
C819        F826   1.357       .  S
C820        C821   1.410       .  A
C820        F825   1.358       .  S
C821        C822   1.408       .  A
C822        F823   1.358       .  S
C827        C828   1.408       .  A
C827        C832   1.407   1_556  A
C827        F834   1.357       .  S
C828        C829   1.405       .  A
C829        C830   1.391   1_556  A
C829        F836   1.359       .  S
C830        C831   1.404       .  A
C830        F835   1.359       .  S
C831        C832   1.407       .  A
C832        F833   1.357       .  S
C837        C838   1.409       .  A
C837        C842   1.395       .  A
C837        F844   1.358       .  S
C838        C839   1.410       .  A
C839        C840   1.403       .  A
C839        F846   1.358       .  S
C840        C841   1.409       .  A
C840        F845   1.358       .  S
C841        C842   1.409       .  A
C842        F843   1.358       .  S
C847        C848   1.411       .  A
C847        C852   1.397       .  A
C847        F854   1.358       .  S
C848        C849   1.407       .  A
C849        C850   1.401       .  A
C849        F856   1.358       .  S
C850        C851   1.411       .  A
C850        F855   1.358       .  S
C851        C852   1.404       .  A
C852        F853   1.358       .  S
C857        C858   1.407       .  A
C857        C862   1.392   1_455  A
C857        F864   1.358       .  S
C858        C859   1.408       .  A
C859        C860   1.397   1_455  A
C859        F866   1.358       .  S
C860        C861   1.407       .  A
C860        F865   1.358       .  S
C861        C862   1.407       .  A
C862        F863   1.358       .  S
C867        C868   1.405       .  A
C867        C872   1.393       .  A
C867        F874   1.358       .  S
C868        C869   1.408       .  A
C869        C870   1.399       .  A
C869        F876   1.358       .  S
C870        C871   1.409       .  A
C870        F875   1.358       .  S
C871        C872   1.408       .  A
C872        F873   1.358       .  S
C877        C878   1.408       .  A
C877        C882   1.398       .  A
C877        F884   1.358       .  S
C878        C879   1.404       .  A
C879        C880   1.400       .  A
C879        F886   1.358       .  S
C880        C881   1.413       .  A
C880        F885   1.358       .  S
C881        C882   1.406       .  A
C882        F883   1.358       .  S
C887        C888   1.409       .  A
C887        C892   1.400       .  A
C887        F894   1.358       .  S
C888        C889   1.408       .  A
C889        C890   1.391       .  A
C889        F896   1.358       .  S
C890        C891   1.408       .  A
C890        F895   1.358       .  S
C891        C892   1.409       .  A
C892        F893   1.358       .  S
C897        C898   1.408       .  A
C897        C902   1.398       .  A
C897        F904   1.358       .  S
C898        C899   1.406       .  A
C899        C900   1.392       .  A
C899        F906   1.358       .  S
C900        C901   1.407       .  A
C900        F905   1.358       .  S
C901        C902   1.407       .  A
C902        F903   1.358       .  S
C907        C908   1.408       .  A
C907        C912   1.394       .  A
C907        F914   1.358       .  S
C908        C909   1.410       .  A
C909        C910   1.403       .  A
C909        F916   1.358       .  S
C910        C911   1.409       .  A
C910        F915   1.358       .  S
C911        C912   1.408       .  A
C912        F913   1.358       .  S
C917        C918   1.408       .  A
C917        C922   1.394       .  A
C917        F924   1.358       .  S
C918        C919   1.408       .  A
C919        C920   1.398       .  A
C919        F926   1.358       .  S
C920        C921   1.406       .  A
C920        F925   1.358       .  S
C921        C922   1.405       .  A
C922        F923   1.358       .  S
C927        C928   1.411       .  A
C927        C932   1.397       .  A
C927        F934   1.358       .  S
C928        C929   1.406       .  A
C929        C930   1.398       .  A
C929        F936   1.358       .  S
C930        C931   1.412       .  A
C930        F935   1.358       .  S
C931        C932   1.406       .  A
C932        F933   1.358       .  S
C937        C938   1.409       .  A
C937        C942   1.395   1_455  A
C937        F944   1.358       .  S
C938        C939   1.409       .  A
C939        C940   1.401   1_455  A
C939        F946   1.358       .  S
C940        C941   1.408       .  A
C940        F945   1.358       .  S
C941        C942   1.409       .  A
C942        F943   1.358       .  S
C947        C948   1.409       .  A
C947        C952   1.409       .  A
C947        F954   1.357       .  S
C948        C949   1.407       .  A
C949        C950   1.394       .  A
C949        F956   1.359       .  S
C950        C951   1.406       .  A
C950        F955   1.359       .  S
C951        C952   1.409       .  A
C952        F953   1.357       .  S
C957        C958   1.408       .  A
C957        C962   1.399       .  A
C957        F964   1.358       .  S
C958        C959   1.408       .  A
C959        C960   1.392       .  A
C959        F966   1.358       .  S
C960        C961   1.408       .  A
C960        F965   1.358       .  S
C961        C962   1.408       .  A
C962        F963   1.358       .  S
C967        C968   1.408       .  A
C967        C972   1.392       .  A
C967        F974   1.359       .  S
C968        C969   1.409       .  A
C969        C970   1.409       .  A
C969        F976   1.357       .  S
C970        C971   1.411   1_554  A
C970        F975   1.357   1_554  S
C971        C972   1.408   1_556  A
C972        F973   1.359   1_554  S
C977        C978   1.411       .  A
C977        C982   1.399       .  A
C977        F984   1.358       .  S
C978        C979   1.404       .  A
C979        C980   1.398       .  A
C979        F986   1.358       .  S
C980        C981   1.412       .  A
C980        F985   1.358       .  S
C981        C982   1.406       .  A
C982        F983   1.358       .  S
C987        C988   1.409       .  A
C987        C992   1.392       .  A
C987        F994   1.358       .  S
C988        C989   1.410       .  A
C989        C990   1.401       .  A
C989        F996   1.358       .  S
C990        C991   1.407       .  A
C990        F995   1.358       .  S
C991        C992   1.406       .  A
C992        F993   1.358       .  S
C997        C998   1.407       .  A
C997       C1002   1.406       .  A
C997       F1004   1.357       .  S
C998        C999   1.405       .  A
C999       C1000   1.394       .  A
C999       F1006   1.358       .  S
C1000      C1001   1.406       .  A
C1000      F1005   1.358       .  S
C1001      C1002   1.408       .  A
C1002      F1003   1.357       .  S
C1007      C1008   1.408       .  A
C1007      C1012   1.394       .  A
C1007      F1014   1.358       .  S
C1008      C1009   1.409       .  A
C1009      C1010   1.402       .  A
C1009      F1016   1.358       .  S
C1010      C1011   1.409       .  A
C1010      F1015   1.358       .  S
C1011      C1012   1.409       .  A
C1012      F1013   1.358       .  S
C1017      C1018   1.409       .  A
C1017      C1022   1.400       .  A
C1017      F1024   1.358       .  S
C1018      C1019   1.407       .  A
C1019      C1020   1.393       .  A
C1019      F1026   1.358       .  S
C1020      C1021   1.409       .  A
C1020      F1025   1.358       .  S
C1021      C1022   1.408       .  A
C1022      F1023   1.358       .  S
C1027      C1028   1.407       .  A
C1027      C1032   1.408   1_554  A
C1027      F1034   1.357       .  S
C1028      C1029   1.406       .  A
C1029      C1030   1.391   1_554  A
C1029      F1036   1.359       .  S
C1030      C1031   1.407       .  A
C1030      F1035   1.359       .  S
C1031      C1032   1.411       .  A
C1032      F1033   1.357       .  S
C1037      C1038   1.408       .  A
C1037      C1042   1.400       .  A
C1037      F1044   1.358       .  S
C1038      C1039   1.407       .  A
C1039      C1040   1.392       .  A
C1039      F1046   1.358       .  S
C1040      C1041   1.408       .  A
C1040      F1045   1.358       .  S
C1041      C1042   1.409       .  A
C1042      F1043   1.358       .  S
C1047      C1048   1.409       .  A
C1047      C1052   1.401       .  A
C1047      F1054   1.358       .  S
C1048      C1049   1.404       .  A
C1049      C1050   1.398       .  A
C1049      F1056   1.358       .  S
C1050      C1051   1.413       .  A
C1050      F1055   1.358       .  S
C1051      C1052   1.408       .  A
C1052      F1053   1.358       .  S
