geometry optimzed in LAMMPS
_audit_creation_date              2020-11-30 
_audit_creation_method            'lammps2cif' 
_symmetry_space_group_name_H-M    'P1' 
_symmetry_Int_Tables_number       1 
_symmetry_cell_setting            triclinic 
loop_ 
_symmetry_equiv_pos_as_xyz 
  x,y,z 
_cell_length_a                    37.23352647 
_cell_length_b                    39.90239396926546 
_cell_length_c                    23.583293019726952 
_cell_angle_alpha                 89.73797062368699 
_cell_angle_beta                  89.85009177791403 
_cell_angle_gamma                 88.99062986495507 
loop_ 
_atom_site_label 
_atom_site_type_symbol 
_atom_site_fract_x 
_atom_site_fract_y 
_atom_site_fract_z 
_atom_site_charge 
N1          N  0.12167921  0.29363039  0.38271174    -0.02000
C2          C  0.13349385  0.28848955  0.32888652     0.00600
C3          C  0.10588797  0.29268263  0.29021894    -0.22300
C4          C  0.07526578  0.29710543  0.32116956    -0.22500
C5          C  0.08525064  0.29504133  0.37742330     0.00500
H6          H  0.10693618  0.28782945  0.24510298     0.14200
H7          H  0.04829713  0.29508359  0.30455832     0.14300
N8          N  0.36864521  0.15352572  0.11251465    -0.02000
C9          C  0.35439890  0.15582266  0.16587198     0.00600
C10         C  0.38077026  0.15585328  0.20677874    -0.22300
C11         C  0.41264626  0.15649678  0.17889464    -0.22500
C12         C  0.40463169  0.15685656  0.12166273     0.00500
H13         H  0.37706635  0.16045762  0.25165825     0.14200
H14         H  0.43844898  0.16086816  0.19832591     0.14300
O15         O  0.21461847  0.26444576  0.14716220    -0.77000
C16         C  0.17710634  0.16858204  0.17147868     0.84000
O17         O  0.18826982  0.25755372  0.35041325    -0.78200
O18         O  0.24737972  0.14848915  0.31473919    -0.79600
O19         O  0.32154647  0.20557693  0.18398275    -0.79400
O20         O  0.27215451  0.27662432  0.16118348    -0.78100
Zn21       Zn  0.20172663  0.23549318  0.21182311     1.55700
O22         O  0.29437229  0.15681074  0.19814464    -0.79500
Cd23       Cd  0.28751000  0.24142421  0.22082612     1.59700
Cd24       Cd  0.23674147  0.23026144  0.33533501     1.59600
O25         O  0.31556322  0.26643960  0.28462590    -0.79400
O26         O  0.24334659  0.21991213  0.25206680    -1.90000
Cd27       Cd  0.24686248  0.17111265  0.23767687     1.59900
O28         O  0.27804352  0.26117348  0.35804088    -0.79400
O29         O  0.20516138  0.15335556  0.18934424    -0.78100
C30         C  0.16654279  0.26952896  0.31326162     0.84500
C31         C  0.24224290  0.28139849  0.13603413     0.84100
O32         O  0.17122141  0.19943640  0.18096081    -0.77000
C33         C  0.32081761  0.17365936  0.18032219     0.84900
O34         O  0.17076000  0.26342911  0.26090064    -0.77100
C35         C  0.30697544  0.27221607  0.33616955     0.85100
C36         C  0.24637814  0.15555677  0.36735084     0.85400
O37         O  0.24229265  0.18573348  0.38484294    -0.79500
C38         C  0.18383251  0.34099532  0.97221097     0.81700
N39         N  0.17990151  0.37108981  0.44693135    -0.76600
C40         C  0.15153008  0.37850544  0.41341641     0.84100
N41         N  0.13006820  0.35320759  0.39681218    -0.76600
C42         C  0.13816073  0.32081061  0.41273534     0.84200
N43         N  0.16401124  0.31484221  0.45301612    -0.78300
C44         C  0.22881528  0.37141350  0.10667116     0.04600
C45         C  0.20974845  0.37092305  0.05559484    -0.11600
C46         C  0.20419412  0.34032877  0.02635962     0.02100
C47         C  0.21700845  0.31032876  0.05069708    -0.10100
C48         C  0.23693375  0.31119586  0.10123093     0.04600
C49         C  0.24360990  0.34172128  0.12772852    -0.09500
H50         H  0.19867394  0.39437619  0.03956423     0.10200
H51         H  0.21097838  0.28650505  0.03134912     0.07700
H52         H  0.25754699  0.34203642  0.16809417     0.07500
N53         N  0.13991923  0.41310874  0.41179058    -0.02000
C54         C  0.16745527  0.43487458  0.40541972     0.00600
C55         C  0.17268266  0.45387162  0.45320367    -0.22300
C56         C  0.14552303  0.44612616  0.48910244    -0.22500
C57         C  0.12396018  0.42395482  0.46066630     0.00500
H58         H  0.19306755  0.47244284  0.45995417     0.14200
H59         H  0.13919495  0.45894875  0.52817634     0.14300
N60         N  0.36653312  0.03590226  0.11092948    -0.02000
C61         C  0.35017412  0.03322815  0.16207399     0.00600
C62         C  0.37486232  0.52703478  0.20464630    -0.22300
C63         C  0.40761880  0.52376399  0.17882391    -0.22500
C64         C  0.40157274  0.02860976  0.12175715     0.00500
H65         H  0.36899614  0.52039551  0.24822650     0.14200
H66         H  0.43217032  0.51462526  0.19846111     0.14300
O67         O  0.17141518  0.48463970  0.18738341    -0.77000
C68         C  0.23269577  0.40206600  0.14053276     0.84000
O69         O  0.22512795  0.44124050  0.36821611    -0.78200
O70         O  0.32484734  0.43258934  0.23056860    -0.79600
O71         O  0.29394643  0.03406576  0.20773818    -0.79400
O72         O  0.20331470  0.03150958  0.18126805    -0.78100
Zn73       Zn  0.20217627  0.45048577  0.23038937     1.55700
O74         O  0.30533667  0.49387242  0.14478449    -0.79500
Cd75       Cd  0.24445713  0.01912517  0.23648917     1.59700
Cd76       Cd  0.26602171  0.46330112  0.32436294     1.59600
O77         O  0.23779841  0.04174059  0.31401032    -0.79400
O78         O  0.24772688  0.47030644  0.24555082    -1.90000
Cd79       Cd  0.28241555  0.45420037  0.18806308     1.59900
O80         O  0.27241874  0.00909660  0.36826291    -0.79400
O81         O  0.26151204  0.41848016  0.13512101    -0.78100
C82         C  0.19201750  0.43695736  0.35688937     0.84500
C83         C  0.17594149  0.01434894  0.16862269     0.84100
O84         O  0.20874333  0.40987265  0.17748229    -0.77000
C85         C  0.31370543  0.02096604  0.16946650     0.84900
O86         O  0.17930385  0.43904379  0.30663682    -0.77100
C87         C  0.25555102  0.03684531  0.35962827     0.85100
C88         C  0.33493686  0.42853782  0.28178924     0.85400
O89         O  0.31499886  0.43645890  0.32404037    -0.79500
C90         C  0.25163163  0.12648657  0.40613744     0.04600
C91         C  0.27556980  0.12687212  0.45223382    -0.11600
C92         C  0.29032233  0.09641919  0.47389362     0.02100
C93         C  0.28214761  0.06593153  0.44599139    -0.10100
C94         C  0.25819031  0.06561925  0.39988573     0.04600
C95         C  0.24060754  0.09561111  0.38497552    -0.09500
H96         H  0.28454707  0.15067645  0.46830725     0.10200
H97         H  0.29573619  0.04278933  0.45810468     0.07700
H98         H  0.22170815  0.09573143  0.35007384     0.07500
C99         C  0.31727158  0.09633242  0.52096164     0.81700
N100        N  0.33013497  0.06638833  0.04158146    -0.76600
C101        C  0.35820159  0.06543115  0.07816420     0.84100
N102        N  0.37274569  0.09458813  0.09484111    -0.76600
C103        C  0.35828484  0.12471385  0.07983650     0.84200
N104        N  0.33011154  0.12565565  0.04280864    -0.78300
N105        N  0.11778709  0.15187628  0.13351320    -0.02000
C106        C  0.10752398  0.15653469  0.07846328     0.00600
C107        C  0.13653152  0.15445057  0.04176231    -0.22300
C108        C  0.16631120  0.15190056  0.07466216    -0.22500
C109        C  0.15435004  0.15238563  0.12998119     0.00500
H110        H  0.13653625  0.15941633  0.99658437     0.14200
H111        H  0.19364512  0.15518178  0.06012018     0.14300
N112        N  0.36828103  0.29003173  0.36521924    -0.02000
C113        C  0.38282480  0.28398172  0.41712385     0.00600
C114        C  0.35707809  0.28406509  0.45905039    -0.22300
C115        C  0.32491666  0.28821061  0.43245573    -0.22500
C116        C  0.33216302  0.28920035  0.37475683     0.00500
H117        H  0.36087850  0.27721040  0.50313980     0.14200
H118        H  0.29905973  0.28447621  0.45243250     0.14300
O119        O  0.02740894  0.17278874  0.39179778    -0.77000
C120        C  0.06143073  0.27564926  0.41419426     0.84000
O121        O  0.04984296  0.18287693  0.09495916    -0.78200
O122        O  0.49050562  0.28983942  0.05542916    -0.79600
O123        O  0.41708900  0.23412499  0.42871585    -0.79400
O124        O  0.46905089  0.16192172  0.40284968    -0.78100
Zn125      Zn  0.03932634  0.20553109  0.45311390     1.55700
O126        O  0.44372315  0.28306635  0.44304006    -0.79500
Cd127      Cd  0.45230866  0.19767899  0.46232803     1.59700
Cd128      Cd  0.50217972  0.20935272  0.07613950     1.59600
O129        O  0.42292055  0.17456124  0.02813885    -0.79400
O130        O  0.99648188  0.21965800  0.49243292    -1.90000
Cd131      Cd  0.99179980  0.26859333  0.47878546     1.59900
O132        O  0.46006825  0.18081129  0.10119961    -0.79400
O133        O  0.03303230  0.28957970  0.43333927    -0.78100
C134        C  0.07402033  0.17364036  0.05970881     0.84500
C135        C  0.99966486  0.15603397  0.37971163     0.84100
O136        O  0.06750534  0.24428058  0.41999171    -0.77000
C137        C  0.41700630  0.26617559  0.42729823     0.84900
O138        O  0.07152559  0.18081423  0.00716127    -0.77100
C139        C  0.43068013  0.17062100  0.08051557     0.85100
C140        C  0.49190179  0.28255045  0.10784331     0.85400
O141        O  0.49691677  0.25260533  0.12544577    -0.79500
C142        C  0.00843936  0.06464691  0.35108188     0.04600
C143        C  0.99360259  0.09552823  0.36853212    -0.11600
C144        C  0.00498231  0.12568974  0.34499522     0.02100
C145        C  0.02861235  0.12508824  0.29845574    -0.10100
C146        C  0.04133788  0.09436874  0.27597009     0.04600
C147        C  0.03154458  0.06412796  0.30354834    -0.09500
H148        H  0.97653903  0.09663134  0.40581464     0.09400
H149        H  0.03804268  0.14859661  0.28135060     0.07700
H150        H  0.04311566  0.04042860  0.28983136     0.07500
C151        C  0.06712805  0.09398935  0.22716319     0.81700
N152        N  0.07898248  0.12338001  0.20338505    -0.76600
C153        C  0.10441716  0.12236878  0.16163829     0.84100
N154        N  0.11788402  0.09236446  0.14495556    -0.76600
C155        C  0.10576422  0.06323441  0.16618360     0.84200
N156        N  0.07973435  0.06397406  0.20660863    -0.78300
N157        N  0.11526542  0.03322149  0.13614918    -0.02000
C158        C  0.09978111  0.02997391  0.08463314     0.00600
C159        C  0.12506871  0.52506053  0.04247019    -0.22300
C160        C  0.15762219  0.52295844  0.06903727    -0.22500
C161        C  0.15073268  0.02730177  0.12601000     0.00500
H162        H  0.11995685  0.51894525  0.99857912     0.14200
H163        H  0.18283692  0.51511534  0.04989289     0.14300
N164        N  0.38916268  0.40978125  0.33837799    -0.02000
C165        C  0.41762694  0.43060013  0.34457690     0.00600
C166        C  0.42331342  0.45014291  0.29724436    -0.22300
C167        C  0.39572132  0.44397673  0.26181179    -0.22500
C168        C  0.37353892  0.42193027  0.28992793     0.00500
H169        H  0.44396111  0.46858460  0.29100897     0.14200
H170        H  0.38944304  0.45825776  0.22392100     0.14300
O171        O  0.45644981  0.41023370  0.07566315    -0.77000
C172        C  0.42640725  0.01453749  0.07976539     0.84000
O173        O  0.47477560  0.43744144  0.38266902    -0.78200
O174        O  0.98533392  0.03948322  0.43433996    -0.79600
O175        O  0.05244461  0.49344367  0.10429166    -0.79400
O176        O  0.01009058  0.41780659  0.11543971    -0.78100
Zn177      Zn  0.45043368  0.44965267  0.01962825     1.55700
O178        O  0.04468123  0.03118391  0.03583258    -0.79500
Cd179      Cd  0.03109457  0.45320694  0.06160184     1.59700
Cd180      Cd  0.01498530  0.46125944  0.42515774     1.59600
O181        O  0.07468986  0.43279184  0.52017350    -0.79400
O182        O  0.49643451  0.46830530  0.50352109    -1.90000
Cd183      Cd  0.49427698  0.01700738  0.01107437     1.59900
O184        O  0.06496018  0.43619043  0.42661594    -0.79400
O185        O  0.45495345  0.03027036  0.06812890    -0.78100
C186        C  0.44154328  0.43311988  0.39372329     0.84500
C187        C  0.48069063  0.40216686  0.11192642     0.84100
O188        O  0.42019523  0.48534999  0.06031128    -0.77000
C189        C  0.06300133  0.01886258  0.07650616     0.84900
O190        O  0.42822070  0.43638798  0.44355969    -0.77100
C191        C  0.08512198  0.42917474  0.46899481     0.85100
C192        C  0.00414720  0.03519264  0.38970996     0.85400
O193        O  0.02099334  0.00743605  0.38117648    -0.79500
C194        C  0.43086873  0.33727062  0.27646450     0.81700
N195        N  0.40954701  0.31152062  0.29334143    -0.76600
C196        C  0.38323053  0.31743820  0.33306310     0.84100
N197        N  0.37608126  0.34981653  0.35011949    -0.76600
C198        C  0.39916519  0.37465493  0.33600611     0.84200
N199        N  0.42807451  0.36670668  0.30386467    -0.78300
C200        C  0.48579103  0.31084353  0.14648587     0.04600
C201        C  0.46541878  0.30824031  0.19677288    -0.11600
C202        C  0.45151840  0.33759666  0.22237438     0.02100
C203        C  0.45649331  0.36897017  0.19470173    -0.10100
C204        C  0.47710536  0.37118287  0.14536124     0.04600
C205        C  0.49349257  0.34253641  0.12415344    -0.09500
H206        H  0.45928738  0.28385597  0.21429757     0.10200
H207        H  0.44413632  0.39174497  0.21097082     0.07700
H208        H  0.00949262  0.34471579  0.08579106     0.07500
N209        N  0.12167917  0.29363041  0.88271181    -0.02000
C210        C  0.13349384  0.28848962  0.82888661     0.00600
C211        C  0.10588794  0.29268264  0.79021902    -0.22300
C212        C  0.07526575  0.29710541  0.82116964    -0.22500
C213        C  0.08525060  0.29504131  0.87742335     0.00500
H214        H  0.10693614  0.28782942  0.74510309     0.14200
H215        H  0.04829706  0.29508353  0.80455845     0.14300
N216        N  0.36864519  0.15352570  0.61251477    -0.02000
C217        C  0.35439893  0.15582269  0.66587211     0.00600
C218        C  0.38077032  0.15585340  0.70677888    -0.22300
C219        C  0.41264629  0.15649683  0.67889466    -0.22500
C220        C  0.40463168  0.15685653  0.62166276     0.00500
H221        H  0.37706648  0.16045783  0.75165830     0.14200
H222        H  0.43844906  0.16086822  0.69832587     0.14300
O223        O  0.21461839  0.26444587  0.64716209    -0.77000
C224        C  0.17710631  0.16858202  0.67147869     0.84000
O225        O  0.18826976  0.25755372  0.85041344    -0.78200
O226        O  0.24737968  0.14848918  0.81473918    -0.79600
O227        O  0.32154644  0.20557696  0.68398274    -0.79400
O228        O  0.27215448  0.27662432  0.66118327    -0.78100
Zn229      Zn  0.20172658  0.23549321  0.71182297     1.55700
O230        O  0.29437227  0.15681075  0.69814455    -0.79500
Cd231      Cd  0.28750996  0.24142432  0.72082614     1.59700
Cd232      Cd  0.23674144  0.23026144  0.83533520     1.59600
O233        O  0.31556320  0.26643966  0.78462581    -0.79400
O234        O  0.24334653  0.21991229  0.75206687    -1.90000
Cd235      Cd  0.24686246  0.17111280  0.73767678     1.59900
O236        O  0.27804359  0.26117339  0.85804089    -0.79400
O237        O  0.20516132  0.15335556  0.68934441    -0.78100
C238        C  0.16654276  0.26952896  0.81326175     0.84500
C239        C  0.24224287  0.28139851  0.63603394     0.84100
O240        O  0.17122140  0.19943639  0.68096066    -0.77000
C241        C  0.32081762  0.17365937  0.68032222     0.84900
O242        O  0.17075996  0.26342906  0.76090078    -0.77100
C243        C  0.30697546  0.27221604  0.83616951     0.85100
C244        C  0.24637809  0.15555674  0.86735087     0.85400
O245        O  0.24229261  0.18573344  0.88484304    -0.79500
C246        C  0.18383255  0.34099533  0.47221094     0.81700
N247        N  0.17990143  0.37108981  0.94693143    -0.76600
C248        C  0.15153005  0.37850544  0.91341639     0.84100
N249        N  0.13006812  0.35320761  0.89681228    -0.76600
C250        C  0.13816066  0.32081061  0.91273546     0.84200
N251        N  0.16401125  0.31484219  0.95301608    -0.78300
C252        C  0.22881528  0.37141351  0.60667118     0.04600
C253        C  0.20974852  0.37092309  0.55559479    -0.11600
C254        C  0.20419412  0.34032881  0.52635960     0.02100
C255        C  0.21700843  0.31032881  0.55069700    -0.10100
C256        C  0.23693377  0.31119588  0.60123079     0.04600
C257        C  0.24360986  0.34172127  0.62772856    -0.09500
H258        H  0.19867409  0.39437627  0.53956406     0.10200
H259        H  0.21097834  0.28650510  0.53134896     0.07700
H260        H  0.25754688  0.34203635  0.66809422     0.07500
N261        N  0.13991926  0.41310876  0.91179052    -0.02000
C262        C  0.16745535  0.43487458  0.90541972     0.00600
C263        C  0.17268267  0.45387166  0.95320366    -0.22300
C264        C  0.14552296  0.44612626  0.98910231    -0.22500
C265        C  0.12396017  0.42395487  0.96066619     0.00500
H266        H  0.19306761  0.47244281  0.95995423     0.14200
H267        H  0.13919482  0.45894886  0.02817618     0.14300
N268        N  0.36653317  0.03590227  0.61092957    -0.02000
C269        C  0.35017418  0.03322818  0.66207408     0.00600
C270        C  0.37486232  0.52703476  0.70464638    -0.22300
C271        C  0.40761883  0.52376405  0.67882404    -0.22500
C272        C  0.40157278  0.02860976  0.62175728     0.00500
H273        H  0.36899616  0.52039547  0.74822657     0.14200
H274        H  0.43217030  0.51462537  0.69846121     0.14300
O275        O  0.17141522  0.48463971  0.68738330    -0.77000
C276        C  0.23269576  0.40206598  0.64053284     0.84000
O277        O  0.22512813  0.44124047  0.86821612    -0.78200
O278        O  0.32484738  0.43258932  0.73056872    -0.79600
O279        O  0.29394641  0.03406583  0.70773805    -0.79400
O280        O  0.20331476  0.03150952  0.68126778    -0.78100
Zn281      Zn  0.20217625  0.45048575  0.73038943     1.55700
O282        O  0.30533666  0.49387236  0.64478463    -0.79500
Cd283      Cd  0.24445713  0.01912515  0.73648898     1.59700
Cd284      Cd  0.26602185  0.46330113  0.82436277     1.59600
O285        O  0.23779854  0.04174063  0.81401015    -0.79400
O286        O  0.24772685  0.47030651  0.74555073    -1.90000
Cd287      Cd  0.28241553  0.45420033  0.68806322     1.59900
O288        O  0.27241871  0.00909655  0.86826285    -0.79400
O289        O  0.26151202  0.41848015  0.63512113    -0.78100
C290        C  0.19201766  0.43695733  0.85688943     0.84500
C291        C  0.17594151  0.01434891  0.66862255     0.84100
O292        O  0.20874330  0.40987260  0.67748238    -0.77000
C293        C  0.31370549  0.02096606  0.66946654     0.84900
O294        O  0.17930398  0.43904377  0.80663689    -0.77100
C295        C  0.25555103  0.03684529  0.85962821     0.85100
C296        C  0.33493693  0.42853781  0.78178933     0.85400
O297        O  0.31499893  0.43645886  0.82404046    -0.79500
C298        C  0.25163159  0.12648653  0.90613748     0.04600
C299        C  0.27556978  0.12687209  0.95223382    -0.11600
C300        C  0.29032230  0.09641917  0.97389367     0.02100
C301        C  0.28214759  0.06593151  0.94599141    -0.10100
C302        C  0.25819026  0.06561920  0.89988578     0.04600
C303        C  0.24060745  0.09561107  0.88497561    -0.09500
H304        H  0.28454708  0.15067645  0.96830722     0.10200
H305        H  0.29573623  0.04278931  0.95810468     0.07700
H306        H  0.22170804  0.09573139  0.85007397     0.07500
C307        C  0.31727151  0.09633241  0.02096172     0.81700
N308        N  0.33013504  0.06638832  0.54158139    -0.76600
C309        C  0.35820163  0.06543114  0.57816422     0.84100
N310        N  0.37274563  0.09458812  0.59484124    -0.76600
C311        C  0.35828479  0.12471384  0.57983665     0.84200
N312        N  0.33011158  0.12565566  0.54280861    -0.78300
N313        N  0.11778711  0.15187625  0.63351316    -0.02000
C314        C  0.10752398  0.15653463  0.57846321     0.00600
C315        C  0.13653153  0.15445053  0.54176228    -0.22300
C316        C  0.16631121  0.15190057  0.57466212    -0.22500
C317        C  0.15435006  0.15238559  0.62998116     0.00500
H318        H  0.13653625  0.15941635  0.49658429     0.14200
H319        H  0.19364514  0.15518187  0.56012018     0.14300
N320        N  0.36828103  0.29003173  0.86521914    -0.02000
C321        C  0.38282478  0.28398171  0.91712376     0.00600
C322        C  0.35707804  0.28406506  0.95905031    -0.22300
C323        C  0.32491664  0.28821059  0.93245561    -0.22500
C324        C  0.33216303  0.28920034  0.87475674     0.00500
H325        H  0.36087841  0.27721037  0.00313975     0.14200
H326        H  0.29905966  0.28447621  0.95243230     0.14300
O327        O  0.02740891  0.17278871  0.89179790    -0.77000
C328        C  0.06143068  0.27564923  0.91419427     0.84000
O329        O  0.04984297  0.18287691  0.59495898    -0.78200
O330        O  0.49050559  0.28983944  0.55542916    -0.79600
O331        O  0.41708897  0.23412495  0.92871571    -0.79400
O332        O  0.46905101  0.16192171  0.90284976    -0.78100
Zn333      Zn  0.03932635  0.20553106  0.95311405     1.55700
O334        O  0.44372315  0.28306631  0.94303993    -0.79500
Cd335      Cd  0.45230865  0.19767898  0.96232811     1.59700
Cd336      Cd  0.50217968  0.20935270  0.57613950     1.59600
O337        O  0.42292050  0.17456123  0.52813878    -0.79400
O338        O  0.99648198  0.21965801  0.99243302    -1.90000
Cd339      Cd  0.99179981  0.26859330  0.97878554     1.59900
O340        O  0.46006823  0.18081125  0.60119955    -0.79400
O341        O  0.03303221  0.28957965  0.93333914    -0.78100
C342        C  0.07402035  0.17364033  0.55970865     0.84500
C343        C  0.99966483  0.15603394  0.87971169     0.84100
O344        O  0.06750533  0.24428055  0.91999184    -0.77000
C345        C  0.41700628  0.26617556  0.92729811     0.84900
O346        O  0.07152562  0.18081421  0.50716110    -0.77100
C347        C  0.43068009  0.17062097  0.58051551     0.85100
C348        C  0.49190178  0.28255042  0.60784332     0.85400
O349        O  0.49691674  0.25260529  0.62544574    -0.79500
C350        C  0.00843945  0.06464694  0.85108197     0.04600
C351        C  0.99360262  0.09552824  0.86853217    -0.11600
C352        C  0.00498229  0.12568973  0.84499522     0.02100
C353        C  0.02861230  0.12508822  0.79845569    -0.10100
C354        C  0.04133781  0.09436872  0.77596999     0.04600
C355        C  0.03154460  0.06412796  0.80354835    -0.09500
H356        H  0.97653908  0.09663135  0.90581470     0.09400
H357        H  0.03804264  0.14859658  0.78135056     0.07700
H358        H  0.04311573  0.04042861  0.78983138     0.07500
C359        C  0.06712799  0.09398933  0.72716307     0.81700
N360        N  0.07898253  0.12338000  0.70338508    -0.76600
C361        C  0.10441724  0.12236876  0.66163836     0.84100
N362        N  0.11788400  0.09236444  0.64495551    -0.76600
C363        C  0.10576423  0.06323441  0.66618362     0.84200
N364        N  0.07973428  0.06397405  0.70660851    -0.78300
N365        N  0.11526543  0.03322149  0.63614923    -0.02000
C366        C  0.09978109  0.02997395  0.58463323     0.00600
C367        C  0.12506873  0.52506049  0.54247025    -0.22300
C368        C  0.15762219  0.52295842  0.56903729    -0.22500
C369        C  0.15073268  0.02730177  0.62600998     0.00500
H370        H  0.11995689  0.51894523  0.49857910     0.14200
H371        H  0.18283698  0.51511533  0.54989292     0.14300
N372        N  0.38916276  0.40978125  0.83837804    -0.02000
C373        C  0.41762704  0.43060008  0.84457689     0.00600
C374        C  0.42331357  0.45014287  0.79724438    -0.22300
C375        C  0.39572144  0.44397671  0.76181188    -0.22500
C376        C  0.37353900  0.42193030  0.78992803     0.00500
H377        H  0.44396125  0.46858455  0.79100904     0.14200
H378        H  0.38944316  0.45825776  0.72392104     0.14300
O379        O  0.45644995  0.41023375  0.57566329    -0.77000
C380        C  0.42640727  0.01453745  0.57976557     0.84000
O381        O  0.47477564  0.43744145  0.88266903    -0.78200
O382        O  0.98533398  0.03948324  0.93433998    -0.79600
O383        O  0.05244457  0.49344366  0.60429184    -0.79400
O384        O  0.01009055  0.41780656  0.61543988    -0.78100
Zn385      Zn  0.45043366  0.44965278  0.51962839     1.55700
O386        O  0.04468124  0.03118387  0.53583268    -0.79500
Cd387      Cd  0.03109451  0.45320695  0.56160197     1.59700
Cd388      Cd  0.01498528  0.46125941  0.92515782     1.59600
O389        O  0.07468985  0.43279167  0.02017345    -0.79400
O390        O  0.49643452  0.46830521  0.00352111    -1.90000
Cd391      Cd  0.49427694  0.01700741  0.51107448     1.59900
O392        O  0.06496016  0.43619042  0.92661595    -0.79400
O393        O  0.45495345  0.03027033  0.56812904    -0.78100
C394        C  0.44154332  0.43311986  0.89372326     0.84500
C395        C  0.48069075  0.40216684  0.61192655     0.84100
O396        O  0.42019516  0.48535002  0.56031151    -0.77000
C397        C  0.06300133  0.01886259  0.57650630     0.84900
O398        O  0.42822071  0.43638792  0.94355962    -0.77100
C399        C  0.08512197  0.42917467  0.96899474     0.85100
C400        C  0.00414727  0.03519268  0.88971001     0.85400
O401        O  0.02099334  0.00743608  0.88117645    -0.79500
C402        C  0.43086884  0.33727058  0.77646465     0.81700
N403        N  0.40954699  0.31152065  0.79334138    -0.76600
C404        C  0.38323051  0.31743822  0.83306303     0.84100
N405        N  0.37608129  0.34981653  0.85011950    -0.76600
C406        C  0.39916524  0.37465492  0.83600611     0.84200
N407        N  0.42807462  0.36670664  0.80386484    -0.78300
C408        C  0.48579110  0.31084349  0.64648598     0.04600
C409        C  0.46541883  0.30824029  0.69677298    -0.11600
C410        C  0.45151846  0.33759664  0.72237448     0.02100
C411        C  0.45649334  0.36897015  0.69470181    -0.10100
C412        C  0.47710542  0.37118283  0.64536135     0.04600
C413        C  0.49349262  0.34253636  0.62415357    -0.09500
H414        H  0.45928738  0.28385596  0.71429768     0.10200
H415        H  0.44413636  0.39174495  0.71097087     0.07700
H416        H  0.00949261  0.34471577  0.58579113     0.07500
N417        N  0.12167917  0.79363042  0.38271172    -0.02000
C418        C  0.13349382  0.78848960  0.32888650     0.00600
C419        C  0.10588792  0.79268265  0.29021894    -0.22300
C420        C  0.07526570  0.79710539  0.32116955    -0.22500
C421        C  0.08525060  0.79504130  0.37742330     0.00500
H422        H  0.10693613  0.78782942  0.24510301     0.14200
H423        H  0.04829709  0.79508350  0.30455834     0.14300
N424        N  0.36864522  0.65352571  0.11251465    -0.02000
C425        C  0.35439888  0.65582267  0.16587196     0.00600
C426        C  0.38077021  0.65585339  0.20677874    -0.22300
C427        C  0.41264624  0.65649683  0.17889470    -0.22500
C428        C  0.40463171  0.65685653  0.12166276     0.00500
H429        H  0.37706627  0.66045781  0.25165820     0.14200
H430        H  0.43844892  0.66086821  0.19832601     0.14300
O431        O  0.21461846  0.76444587  0.14716228    -0.77000
C432        C  0.17710625  0.66858204  0.17147868     0.84000
O433        O  0.18826978  0.75755371  0.35041326    -0.78200
O434        O  0.24737971  0.64848916  0.31473915    -0.79600
O435        O  0.32154647  0.70557694  0.18398276    -0.79400
O436        O  0.27215455  0.77662435  0.16118339    -0.78100
Zn437      Zn  0.20172661  0.73549319  0.21182309     1.55700
O438        O  0.29437223  0.65681078  0.19814466    -0.79500
Cd439      Cd  0.28751004  0.74142433  0.22082611     1.59700
Cd440      Cd  0.23674147  0.73026143  0.33533502     1.59600
O441        O  0.31556325  0.76643961  0.28462592    -0.79400
O442        O  0.24334660  0.71991228  0.25206679    -1.90000
Cd443      Cd  0.24686235  0.67111279  0.23767687     1.59900
O444        O  0.27804352  0.76117344  0.35804086    -0.79400
O445        O  0.20516127  0.65335558  0.18934431    -0.78100
C446        C  0.16654275  0.76952896  0.31326162     0.84500
C447        C  0.24224292  0.78139853  0.13603410     0.84100
O448        O  0.17122129  0.69943639  0.18096081    -0.77000
C449        C  0.32081757  0.67365936  0.18032216     0.84900
O450        O  0.17075996  0.76342909  0.26090065    -0.77100
C451        C  0.30697545  0.77221605  0.33616956     0.85100
C452        C  0.24637817  0.65555675  0.36735081     0.85400
O453        O  0.24229268  0.68573345  0.38484294    -0.79500
C454        C  0.18383254  0.84099535  0.97221096     0.81700
N455        N  0.17990153  0.87108980  0.44693135    -0.76600
C456        C  0.15153010  0.87850544  0.41341643     0.84100
N457        N  0.13006821  0.85320760  0.39681218    -0.76600
C458        C  0.13816071  0.82081061  0.41273537     0.84200
N459        N  0.16401125  0.81484220  0.45301609    -0.78300
C460        C  0.22881531  0.87141350  0.10667117     0.04600
C461        C  0.20974850  0.87092306  0.05559486    -0.11600
C462        C  0.20419416  0.84032880  0.02635962     0.02100
C463        C  0.21700847  0.81032880  0.05069709    -0.10100
C464        C  0.23693381  0.81119588  0.10123088     0.04600
C465        C  0.24360994  0.84172128  0.12772851    -0.09500
H466        H  0.19867398  0.89437623  0.03956423     0.10200
H467        H  0.21097835  0.78650505  0.03134914     0.07700
H468        H  0.25754703  0.84203641  0.16809418     0.07500
N469        N  0.13991925  0.91310875  0.41179060    -0.02000
C470        C  0.16745530  0.93487458  0.40541976     0.00600
C471        C  0.17268266  0.95387166  0.45320370    -0.22300
C472        C  0.14552295  0.94612628  0.48910237    -0.22500
C473        C  0.12396015  0.92395488  0.46066624     0.00500
H474        H  0.19306761  0.97244282  0.45995429     0.14200
H475        H  0.13919483  0.95894887  0.52817620     0.14300
N476        N  0.36653316  0.53590228  0.11092949    -0.02000
C477        C  0.35017417  0.53322820  0.16207401     0.00600
C478        C  0.37486228  0.02703480  0.20464630    -0.22300
C479        C  0.40761877  0.02376402  0.17882391    -0.22500
C480        C  0.40157277  0.52860975  0.12175714     0.00500
H481        H  0.36899611  0.02039553  0.24822650     0.14200
H482        H  0.43217029  0.01462530  0.19846112     0.14300
O483        O  0.17141520  0.98463969  0.18738340    -0.77000
C484        C  0.23269581  0.90206598  0.14053277     0.84000
O485        O  0.22512799  0.94124047  0.36821611    -0.78200
O486        O  0.32484737  0.93258932  0.23056860    -0.79600
O487        O  0.29394647  0.53406578  0.20773817    -0.79400
O488        O  0.20331473  0.53150955  0.18126802    -0.78100
Zn489      Zn  0.20217630  0.95048574  0.23038937     1.55700
O490        O  0.30533654  0.99387241  0.14478446    -0.79500
Cd491      Cd  0.24445716  0.51912515  0.23648916     1.59700
Cd492      Cd  0.26602174  0.96330110  0.32436294     1.59600
O493        O  0.23779844  0.54174057  0.31401031    -0.79400
O494        O  0.24772690  0.97030643  0.24555082    -1.90000
Cd495      Cd  0.28241556  0.95420033  0.18806310     1.59900
O496        O  0.27241876  0.50909660  0.36826292    -0.79400
O497        O  0.26151208  0.91848014  0.13512102    -0.78100
C498        C  0.19201754  0.93695734  0.35688939     0.84500
C499        C  0.17594150  0.51434893  0.16862267     0.84100
O500        O  0.20874336  0.90987262  0.17748230    -0.77000
C501        C  0.31370549  0.52096609  0.16946649     0.84900
O502        O  0.17930388  0.93904376  0.30663683    -0.77100
C503        C  0.25555101  0.53684529  0.35962829     0.85100
C504        C  0.33493689  0.92853780  0.28178924     0.85400
O505        O  0.31499889  0.93645888  0.32404037    -0.79500
C506        C  0.25163166  0.62648654  0.40613740     0.04600
C507        C  0.27556982  0.62687209  0.45223379    -0.11600
C508        C  0.29032232  0.59641916  0.47389362     0.02100
C509        C  0.28214758  0.56593149  0.44599141    -0.10100
C510        C  0.25819025  0.56561922  0.39988577     0.04600
C511        C  0.24060752  0.59561109  0.38497555    -0.09500
H512        H  0.28454709  0.65067641  0.46830725     0.10200
H513        H  0.29573614  0.54278931  0.45810470     0.07700
H514        H  0.22170812  0.59573142  0.35007382     0.07500
C515        C  0.31727152  0.59633241  0.52096171     0.81700
N516        N  0.33013501  0.56638834  0.04158146    -0.76600
C517        C  0.35820163  0.56543116  0.07816420     0.84100
N518        N  0.37274573  0.59458813  0.09484110    -0.76600
C519        C  0.35828487  0.62471385  0.07983649     0.84200
N520        N  0.33011158  0.62565566  0.04280865    -0.78300
N521        N  0.11778709  0.65187624  0.13351316    -0.02000
C522        C  0.10752398  0.65653467  0.07846325     0.00600
C523        C  0.13653153  0.65445055  0.04176228    -0.22300
C524        C  0.16631123  0.65190056  0.07466213    -0.22500
C525        C  0.15435002  0.65238560  0.12998116     0.00500
H526        H  0.13653626  0.65941635  0.99658436     0.14200
H527        H  0.19364512  0.65518186  0.06012021     0.14300
N528        N  0.36828102  0.79003172  0.36521925    -0.02000
C529        C  0.38282477  0.78398169  0.41712385     0.00600
C530        C  0.35707805  0.78406506  0.45905038    -0.22300
C531        C  0.32491661  0.78821058  0.43245574    -0.22500
C532        C  0.33216300  0.78920034  0.37475685     0.00500
H533        H  0.36087845  0.77721038  0.50313979     0.14200
H534        H  0.29905971  0.78447617  0.45243247     0.14300
O535        O  0.02740896  0.67278869  0.39179777    -0.77000
C536        C  0.06143066  0.77564924  0.41419428     0.84000
O537        O  0.04984298  0.68287692  0.09495921    -0.78200
O538        O  0.49050565  0.78983940  0.05542916    -0.79600
O539        O  0.41708903  0.73412497  0.42871584    -0.79400
O540        O  0.46905093  0.66192169  0.40284968    -0.78100
Zn541      Zn  0.03932634  0.70553105  0.45311389     1.55700
O542        O  0.44372317  0.78306633  0.44304005    -0.79500
Cd543      Cd  0.45230869  0.69767897  0.46232803     1.59700
Cd544      Cd  0.50217975  0.70935270  0.07613951     1.59600
O545        O  0.42292058  0.67456121  0.02813886    -0.79400
O546        O  0.99648188  0.71965797  0.49243292    -1.90000
Cd547      Cd  0.99179970  0.76859330  0.47878547     1.59900
O548        O  0.46006829  0.68081126  0.10119963    -0.79400
O549        O  0.03303224  0.78957970  0.43333935    -0.78100
C550        C  0.07402030  0.67364031  0.05970882     0.84500
C551        C  0.99966486  0.65603394  0.37971163     0.84100
O552        O  0.06750524  0.74428054  0.41999165    -0.77000
C553        C  0.41700631  0.76617557  0.42729822     0.84900
O554        O  0.07152551  0.68081417  0.00716128    -0.77100
C555        C  0.43068016  0.67062096  0.08051558     0.85100
C556        C  0.49190182  0.78255042  0.10784332     0.85400
O557        O  0.49691680  0.75260530  0.12544577    -0.79500
C558        C  0.00843938  0.56464692  0.35108190     0.04600
C559        C  0.99360257  0.59552823  0.36853211    -0.11600
C560        C  0.00498226  0.62568972  0.34499519     0.02100
C561        C  0.02861230  0.62508822  0.29845571    -0.10100
C562        C  0.04133782  0.59436872  0.27597003     0.04600
C563        C  0.03154456  0.56412795  0.30354833    -0.09500
H564        H  0.97653904  0.59663134  0.40581468     0.09400
H565        H  0.03804268  0.64859659  0.28135068     0.07700
H566        H  0.04311568  0.54042860  0.28983142     0.07500
C567        C  0.06712802  0.59398933  0.22716316     0.81700
N568        N  0.07898249  0.62338000  0.20338508    -0.76600
C569        C  0.10441717  0.62236875  0.16163831     0.84100
N570        N  0.11788404  0.59236443  0.14495564    -0.76600
C571        C  0.10576423  0.56323439  0.16618365     0.84200
N572        N  0.07973425  0.56397404  0.20660853    -0.78300
N573        N  0.11526542  0.53322149  0.13614919    -0.02000
C574        C  0.09978108  0.52997397  0.08463316     0.00600
C575        C  0.12506876  0.02506051  0.04247019    -0.22300
C576        C  0.15762222  0.02295848  0.06903731    -0.22500
C577        C  0.15073267  0.52730176  0.12600997     0.00500
H578        H  0.11995696  0.01894528  0.99857906     0.14200
H579        H  0.18283701  0.01511541  0.04989296     0.14300
N580        N  0.38916267  0.90978124  0.33837800    -0.02000
C581        C  0.41762692  0.93060012  0.34457691     0.00600
C582        C  0.42331344  0.95014289  0.29724437    -0.22300
C583        C  0.39572134  0.94397670  0.26181177    -0.22500
C584        C  0.37353894  0.92193025  0.28992793     0.00500
H585        H  0.44396110  0.96858459  0.29100903     0.14200
H586        H  0.38944306  0.95825774  0.22392100     0.14300
O587        O  0.45644977  0.91023372  0.07566315    -0.77000
C588        C  0.42640728  0.51453745  0.07976537     0.84000
O589        O  0.47477556  0.93744141  0.38266900    -0.78200
O590        O  0.98533394  0.53948326  0.43433995    -0.79600
O591        O  0.05244459  0.99344366  0.10429165    -0.79400
O592        O  0.01009062  0.91780655  0.11543971    -0.78100
Zn593      Zn  0.45043357  0.94965277  0.01962825     1.55700
O594        O  0.04468124  0.53118389  0.03583255    -0.79500
Cd595      Cd  0.03109459  0.95320694  0.06160184     1.59700
Cd596      Cd  0.01498529  0.96125943  0.42515775     1.59600
O597        O  0.07468986  0.93279182  0.52017351    -0.79400
O598        O  0.49643451  0.96830529  0.50352112    -1.90000
Cd599      Cd  0.49427700  0.51700736  0.01107437     1.59900
O600        O  0.06496012  0.93619036  0.42661597    -0.79400
O601        O  0.45495349  0.53027033  0.06812890    -0.78100
C602        C  0.44154324  0.93311986  0.39372330     0.84500
C603        C  0.48069060  0.90216684  0.11192639     0.84100
O604        O  0.42019518  0.98535003  0.06031132    -0.77000
C605        C  0.06300133  0.51886261  0.07650618     0.84900
O606        O  0.42822068  0.93638796  0.44355970    -0.77100
C607        C  0.08512194  0.92917471  0.46899480     0.85100
C608        C  0.00414723  0.53519266  0.38970998     0.85400
O609        O  0.02099337  0.50743606  0.38117650    -0.79500
C610        C  0.43086878  0.83727061  0.27646455     0.81700
N611        N  0.40954706  0.81152061  0.29334149    -0.76600
C612        C  0.38323054  0.81743820  0.33306312     0.84100
N613        N  0.37608128  0.84981652  0.35011952    -0.76600
C614        C  0.39916520  0.87465493  0.33600612     0.84200
N615        N  0.42807451  0.86670670  0.30386466    -0.78300
C616        C  0.48579106  0.81084350  0.14648589     0.04600
C617        C  0.46541883  0.80824029  0.19677293    -0.11600
C618        C  0.45151849  0.83759664  0.22237447     0.02100
C619        C  0.45649335  0.86897015  0.19470178    -0.10100
C620        C  0.47710534  0.87118284  0.14536123     0.04600
C621        C  0.49349258  0.84253639  0.12415346    -0.09500
H622        H  0.45928738  0.78385595  0.21429763     0.10200
H623        H  0.44413633  0.89174493  0.21097087     0.07700
H624        H  0.00949259  0.84471576  0.08579110     0.07500
N625        N  0.12167920  0.79363043  0.88271185    -0.02000
C626        C  0.13349386  0.78848966  0.82888664     0.00600
C627        C  0.10588799  0.79268283  0.79021904    -0.22300
C628        C  0.07526580  0.79710557  0.82116967    -0.22500
C629        C  0.08525064  0.79504132  0.87742337     0.00500
H630        H  0.10693618  0.78782966  0.74510309     0.14200
H631        H  0.04829711  0.79508370  0.80455845     0.14300
N632        N  0.36864518  0.65352570  0.61251476    -0.02000
C633        C  0.35439891  0.65582266  0.66587210     0.00600
C634        C  0.38077029  0.65585343  0.70677888    -0.22300
C635        C  0.41264626  0.65649695  0.67889467    -0.22500
C636        C  0.40463168  0.65685657  0.62166277     0.00500
H637        H  0.37706641  0.66045779  0.75165830     0.14200
H638        H  0.43844901  0.66086838  0.69832589     0.14300
O639        O  0.21461843  0.76444584  0.64716208    -0.77000
C640        C  0.17710630  0.66858209  0.67147872     0.84000
O641        O  0.18826976  0.75755367  0.85041340    -0.78200
O642        O  0.24737971  0.64848915  0.81473918    -0.79600
O643        O  0.32154642  0.70557692  0.68398273    -0.79400
O644        O  0.27215452  0.77662429  0.66118328    -0.78100
Zn645      Zn  0.20172662  0.73549322  0.71182300     1.55700
O646        O  0.29437224  0.65681073  0.69814455    -0.79500
Cd647      Cd  0.28750999  0.74142430  0.72082615     1.59700
Cd648      Cd  0.23674146  0.73026143  0.83533519     1.59600
O649        O  0.31556323  0.76643960  0.78462589    -0.79400
O650        O  0.24334657  0.71991226  0.75206688    -1.90000
Cd651      Cd  0.24686248  0.67111278  0.73767679     1.59900
O652        O  0.27804350  0.76117358  0.85804086    -0.79400
O653        O  0.20516131  0.65335559  0.68934438    -0.78100
C654        C  0.16654279  0.76952900  0.81326174     0.84500
C655        C  0.24224291  0.78139848  0.63603393     0.84100
O656        O  0.17122144  0.69943646  0.68096072    -0.77000
C657        C  0.32081759  0.67365934  0.68032220     0.84900
O658        O  0.17076003  0.76342919  0.76090074    -0.77100
C659        C  0.30697543  0.77221612  0.83616951     0.85100
C660        C  0.24637812  0.65555672  0.86735086     0.85400
O661        O  0.24229265  0.68573342  0.88484304    -0.79500
C662        C  0.18383257  0.84099531  0.47221092     0.81700
N663        N  0.17990147  0.87108985  0.94693140    -0.76600
C664        C  0.15153008  0.87850546  0.91341638     0.84100
N665        N  0.13006815  0.85320764  0.89681226    -0.76600
C666        C  0.13816069  0.82081064  0.91273545     0.84200
N667        N  0.16401126  0.81484224  0.95301610    -0.78300
C668        C  0.22881532  0.87141348  0.60667118     0.04600
C669        C  0.20974854  0.87092305  0.55559481    -0.11600
C670        C  0.20419415  0.84032878  0.52635959     0.02100
C671        C  0.21700847  0.81032878  0.55069700    -0.10100
C672        C  0.23693380  0.81119586  0.60123079     0.04600
C673        C  0.24360990  0.84172124  0.62772855    -0.09500
H674        H  0.19867406  0.89437624  0.53956412     0.10200
H675        H  0.21097838  0.78650508  0.53134896     0.07700
H676        H  0.25754692  0.84203633  0.66809421     0.07500
N677        N  0.13991925  0.91310877  0.91179054    -0.02000
C678        C  0.16745531  0.93487459  0.90541971     0.00600
C679        C  0.17268269  0.95387163  0.95320366    -0.22300
C680        C  0.14552300  0.94612623  0.98910234    -0.22500
C681        C  0.12396018  0.92395485  0.96066622     0.00500
H682        H  0.19306763  0.97244279  0.95995420     0.14200
H683        H  0.13919487  0.95894884  0.02817619     0.14300
N684        N  0.36653317  0.53590230  0.61092957    -0.02000
C685        C  0.35017417  0.53322816  0.66207407     0.00600
C686        C  0.37486234  0.02703478  0.70464639    -0.22300
C687        C  0.40761884  0.02376401  0.67882406    -0.22500
C688        C  0.40157278  0.52860981  0.62175727     0.00500
H689        H  0.36899618  0.02039551  0.74822658     0.14200
H690        H  0.43217032  0.01462529  0.69846124     0.14300
O691        O  0.17141521  0.98463968  0.68738330    -0.77000
C692        C  0.23269579  0.90206596  0.64053284     0.84000
O693        O  0.22512804  0.94124042  0.86821613    -0.78200
O694        O  0.32484733  0.93258928  0.73056871    -0.79600
O695        O  0.29394642  0.53406584  0.70773808    -0.79400
O696        O  0.20331465  0.53150965  0.68126787    -0.78100
Zn697      Zn  0.20217627  0.95048574  0.73038942     1.55700
O698        O  0.30533670  0.99387235  0.64478465    -0.79500
Cd699      Cd  0.24445710  0.51912529  0.73648898     1.59700
Cd700      Cd  0.26602170  0.96330108  0.82436279     1.59600
O701        O  0.23779839  0.54174063  0.81401027    -0.79400
O702        O  0.24772686  0.97030642  0.74555072    -1.90000
Cd703      Cd  0.28241556  0.95420031  0.68806321     1.59900
O704        O  0.27241880  0.50909663  0.86826276    -0.79400
O705        O  0.26151205  0.91848013  0.63512112    -0.78100
C706        C  0.19201757  0.93695738  0.85688940     0.84500
C707        C  0.17594147  0.51434896  0.66862257     0.84100
O708        O  0.20874333  0.90987257  0.67748239    -0.77000
C709        C  0.31370548  0.52096606  0.66946654     0.84900
O710        O  0.17930390  0.93904391  0.80663687    -0.77100
C711        C  0.25555101  0.53684532  0.85962822     0.85100
C712        C  0.33493685  0.92853778  0.78178933     0.85400
O713        O  0.31499884  0.93645885  0.82404044    -0.79500
C714        C  0.25163162  0.62648654  0.90613747     0.04600
C715        C  0.27556980  0.62687210  0.95223381    -0.11600
C716        C  0.29032234  0.59641918  0.97389366     0.02100
C717        C  0.28214762  0.56593153  0.94599141    -0.10100
C718        C  0.25819027  0.56561923  0.89988578     0.04600
C719        C  0.24060747  0.59561108  0.88497562    -0.09500
H720        H  0.28454710  0.65067647  0.96830719     0.10200
H721        H  0.29573625  0.54278934  0.95810469     0.07700
H722        H  0.22170806  0.59573140  0.85007398     0.07500
C723        C  0.31727154  0.59633242  0.02096171     0.81700
N724        N  0.33013504  0.56638832  0.54158140    -0.76600
C725        C  0.35820162  0.56543116  0.57816422     0.84100
N726        N  0.37274564  0.59458813  0.59484121    -0.76600
C727        C  0.35828480  0.62471384  0.57983659     0.84200
N728        N  0.33011156  0.62565566  0.54280861    -0.78300
N729        N  0.11778709  0.65187635  0.63351318    -0.02000
C730        C  0.10752401  0.65653473  0.57846321     0.00600
C731        C  0.13653155  0.65445059  0.54176228    -0.22300
C732        C  0.16631121  0.65190072  0.57466215    -0.22500
C733        C  0.15435003  0.65238573  0.62998117     0.00500
H734        H  0.13653627  0.65941626  0.49658424     0.14200
H735        H  0.19364513  0.65518198  0.56012024     0.14300
N736        N  0.36828103  0.79003174  0.86521917    -0.02000
C737        C  0.38282481  0.78398175  0.91712377     0.00600
C738        C  0.35707808  0.78406507  0.95905030    -0.22300
C739        C  0.32491666  0.78821060  0.93245561    -0.22500
C740        C  0.33216303  0.78920038  0.87475675     0.00500
H741        H  0.36087844  0.77721032  0.00313971     0.14200
H742        H  0.29905970  0.78447617  0.95243229     0.14300
O743        O  0.02740891  0.67278882  0.89179781    -0.77000
C744        C  0.06143071  0.77564921  0.91419426     0.84000
O745        O  0.04984298  0.68287690  0.59495896    -0.78200
O746        O  0.49050562  0.78983940  0.55542915    -0.79600
O747        O  0.41708897  0.73412496  0.92871570    -0.79400
O748        O  0.46905096  0.66192167  0.90284982    -0.78100
Zn749      Zn  0.03932631  0.70553107  0.95311407     1.55700
O750        O  0.44372320  0.78306629  0.94303994    -0.79500
Cd751      Cd  0.45230866  0.69767896  0.96232810     1.59700
Cd752      Cd  0.50217971  0.70935267  0.57613950     1.59600
O753        O  0.42292053  0.67456120  0.52813878    -0.79400
O754        O  0.99648186  0.71965797  0.99243299    -1.90000
Cd755      Cd  0.99179978  0.76859328  0.97878553     1.59900
O756        O  0.46006826  0.68081122  0.60119954    -0.79400
O757        O  0.03303224  0.78957962  0.93333914    -0.78100
C758        C  0.07402037  0.67364035  0.55970863     0.84500
C759        C  0.99966486  0.65603399  0.87971168     0.84100
O760        O  0.06750537  0.74428053  0.91999185    -0.77000
C761        C  0.41700631  0.76617557  0.92729811     0.84900
O762        O  0.07152564  0.68081421  0.50716107    -0.77100
C763        C  0.43068012  0.67062094  0.58051550     0.85100
C764        C  0.49190177  0.78255040  0.60784331     0.85400
O765        O  0.49691676  0.75260527  0.62544574    -0.79500
C766        C  0.00843948  0.56464693  0.85108199     0.04600
C767        C  0.99360267  0.59552825  0.86853220    -0.11600
C768        C  0.00498236  0.62568975  0.84499525     0.02100
C769        C  0.02861233  0.62508823  0.79845566    -0.10100
C770        C  0.04133784  0.59436872  0.77597001     0.04600
C771        C  0.03154462  0.56412796  0.80354837    -0.09500
H772        H  0.97653914  0.59663136  0.90581472     0.09400
H773        H  0.03804264  0.64859657  0.78135046     0.07700
H774        H  0.04311575  0.54042861  0.78983140     0.07500
C775        C  0.06712802  0.59398934  0.72716309     0.81700
N776        N  0.07898253  0.62338003  0.70338507    -0.76600
C777        C  0.10441718  0.62236882  0.66163828     0.84100
N778        N  0.11788401  0.59236450  0.64495547    -0.76600
C779        C  0.10576426  0.56323444  0.66618361     0.84200
N780        N  0.07973432  0.56397406  0.70660850    -0.78300
N781        N  0.11526543  0.53322151  0.63614920    -0.02000
C782        C  0.09978109  0.52997393  0.58463321     0.00600
C783        C  0.12506871  0.02506053  0.54247026    -0.22300
C784        C  0.15762217  0.02295845  0.56903730    -0.22500
C785        C  0.15073266  0.52730175  0.62600995     0.00500
H786        H  0.11995685  0.01894526  0.49857912     0.14200
H787        H  0.18283695  0.01511535  0.54989291     0.14300
N788        N  0.38916267  0.90978123  0.83837803    -0.02000
C789        C  0.41762695  0.93060008  0.84457691     0.00600
C790        C  0.42331339  0.95014290  0.79724446    -0.22300
C791        C  0.39572127  0.94397680  0.76181194    -0.22500
C792        C  0.37353890  0.92193030  0.78992804     0.00500
H793        H  0.44396114  0.96858459  0.79100908     0.14200
H794        H  0.38944297  0.95825785  0.72392117     0.14300
O795        O  0.45644983  0.91023373  0.57566332    -0.77000
C796        C  0.42640726  0.51453748  0.57976557     0.84000
O797        O  0.47477562  0.93744146  0.88266900    -0.78200
O798        O  0.98533400  0.53948323  0.93433998    -0.79600
O799        O  0.05244461  0.99344366  0.60429183    -0.79400
O800        O  0.01009057  0.91780657  0.61543989    -0.78100
Zn801      Zn  0.45043367  0.94965277  0.51962838     1.55700
O802        O  0.04468121  0.53118390  0.53583273    -0.79500
Cd803      Cd  0.03109454  0.95320694  0.56160195     1.59700
Cd804      Cd  0.01498529  0.96125952  0.92515780     1.59600
O805        O  0.07468991  0.93279182  0.02017343    -0.79400
O806        O  0.49643449  0.96830524  0.00352113    -1.90000
Cd807      Cd  0.49427697  0.51700748  0.51107448     1.59900
O808        O  0.06496017  0.93619041  0.92661593    -0.79400
O809        O  0.45495346  0.53027034  0.56812908    -0.78100
C810        C  0.44154330  0.93311983  0.89372325     0.84500
C811        C  0.48069066  0.90216685  0.61192656     0.84100
O812        O  0.42019520  0.98534999  0.56031150    -0.77000
C813        C  0.06300131  0.51886258  0.57650631     0.84900
O814        O  0.42822070  0.93638793  0.94355960    -0.77100
C815        C  0.08512199  0.92917471  0.96899474     0.85100
C816        C  0.00414730  0.53519266  0.88971003     0.85400
O817        O  0.02099335  0.50743603  0.88117647    -0.79500
C818        C  0.43086876  0.83727059  0.77646457     0.81700
N819        N  0.40954698  0.81152062  0.79334139    -0.76600
C820        C  0.38323051  0.81743821  0.83306305     0.84100
N821        N  0.37608127  0.84981651  0.85011954    -0.76600
C822        C  0.39916517  0.87465491  0.83600610     0.84200
N823        N  0.42807451  0.86670666  0.80386472    -0.78300
C824        C  0.48579104  0.81084347  0.64648594     0.04600
C825        C  0.46541881  0.80824027  0.69677299    -0.11600
C826        C  0.45151846  0.83759663  0.72237449     0.02100
C827        C  0.45649335  0.86897014  0.69470185    -0.10100
C828        C  0.47710541  0.87118283  0.64536137     0.04600
C829        C  0.49349260  0.84253636  0.62415356    -0.09500
H830        H  0.45928737  0.78385594  0.71429773     0.10200
H831        H  0.44413637  0.89174494  0.71097088     0.07700
H832        H  0.00949264  0.84471576  0.58579120     0.07500
N833        N  0.62167914  0.29363039  0.38271175    -0.02000
C834        C  0.63349378  0.28848953  0.32888654     0.00600
C835        C  0.60588790  0.29268262  0.29021895    -0.22300
C836        C  0.57526571  0.29710543  0.32116957    -0.22500
C837        C  0.58525056  0.29504134  0.37742331     0.00500
H838        H  0.60693611  0.28782945  0.24510300     0.14200
H839        H  0.54829705  0.29508359  0.30455831     0.14300
N840        N  0.86864520  0.15352574  0.11251464    -0.02000
C841        C  0.85439891  0.15582270  0.16587198     0.00600
C842        C  0.88077026  0.15585328  0.20677875    -0.22300
C843        C  0.91264625  0.15649678  0.17889465    -0.22500
C844        C  0.90463168  0.15685656  0.12166272     0.00500
H845        H  0.87706636  0.16045762  0.25165826     0.14200
H846        H  0.93844897  0.16086816  0.19832593     0.14300
O847        O  0.71461859  0.26444577  0.14716220    -0.77000
C848        C  0.67710629  0.16858205  0.17147867     0.84000
O849        O  0.68826984  0.25755378  0.35041324    -0.78200
O850        O  0.74737966  0.14848914  0.31473918    -0.79600
O851        O  0.82154646  0.20557695  0.18398273    -0.79400
O852        O  0.77215461  0.27662433  0.16118347    -0.78100
Zn853      Zn  0.70172669  0.23549318  0.21182310     1.55700
O854        O  0.79437234  0.15681073  0.19814472    -0.79500
Cd855      Cd  0.78750995  0.24142420  0.22082613     1.59700
Cd856      Cd  0.73674147  0.23026144  0.33533502     1.59600
O857        O  0.81556321  0.26643961  0.28462586    -0.79400
O858        O  0.74334656  0.21991212  0.25206683    -1.90000
Cd859      Cd  0.74686245  0.17111264  0.23767685     1.59900
O860        O  0.77804355  0.26117342  0.35804088    -0.79400
O861        O  0.70516132  0.15335556  0.18934425    -0.78100
C862        C  0.66654276  0.26952896  0.31326161     0.84500
C863        C  0.74224300  0.28139849  0.13603411     0.84100
O864        O  0.67122138  0.19943642  0.18096082    -0.77000
C865        C  0.82081763  0.17365937  0.18032221     0.84900
O866        O  0.67075997  0.26342908  0.26090064    -0.77100
C867        C  0.80697545  0.27221605  0.33616953     0.85100
C868        C  0.74637818  0.15555677  0.36735083     0.85400
O869        O  0.74229281  0.18573349  0.38484293    -0.79500
C870        C  0.68383251  0.34099533  0.97221103     0.81700
N871        N  0.67990146  0.37108981  0.44693142    -0.76600
C872        C  0.65153006  0.37850544  0.41341640     0.84100
N873        N  0.63006821  0.35320759  0.39681207    -0.76600
C874        C  0.63816068  0.32081061  0.41273533     0.84200
N875        N  0.66401117  0.31484221  0.45301616    -0.78300
C876        C  0.72881534  0.37141350  0.10667115     0.04600
C877        C  0.70974856  0.37092306  0.05559479    -0.11600
C878        C  0.70419417  0.34032876  0.02635965     0.02100
C879        C  0.71700854  0.31032876  0.05069706    -0.10100
C880        C  0.73693385  0.31119587  0.10123091     0.04600
C881        C  0.74360991  0.34172127  0.12772857    -0.09500
H882        H  0.69867411  0.39437621  0.03956413     0.10200
H883        H  0.71097848  0.28650505  0.03134909     0.07700
H884        H  0.75754690  0.34203641  0.16809433     0.07500
N885        N  0.63991923  0.41310875  0.41179053    -0.02000
C886        C  0.66745528  0.43487458  0.40541969     0.00600
C887        C  0.67268261  0.45387164  0.45320365    -0.22300
C888        C  0.64552300  0.44612616  0.48910243    -0.22500
C889        C  0.62396018  0.42395482  0.46066627     0.00500
H890        H  0.69306751  0.47244284  0.45995419     0.14200
H891        H  0.63919490  0.45894872  0.52817634     0.14300
N892        N  0.86653315  0.03590227  0.11092948    -0.02000
C893        C  0.85017418  0.03322816  0.16207400     0.00600
C894        C  0.87486234  0.52703476  0.20464630    -0.22300
C895        C  0.90761884  0.52376400  0.17882392    -0.22500
C896        C  0.90157277  0.02860976  0.12175715     0.00500
H897        H  0.86899620  0.52039548  0.24822649     0.14200
H898        H  0.93217034  0.51462527  0.19846107     0.14300
O899        O  0.67141512  0.48463972  0.18738347    -0.77000
C900        C  0.73269580  0.40206600  0.14053276     0.84000
O901        O  0.72512806  0.44124048  0.36821618    -0.78200
O902        O  0.82484733  0.43258935  0.23056861    -0.79600
O903        O  0.79394648  0.03406573  0.20773819    -0.79400
O904        O  0.70331471  0.03150955  0.18126797    -0.78100
Zn905      Zn  0.70217623  0.45048577  0.23038936     1.55700
O906        O  0.80533660  0.49387243  0.14478449    -0.79500
Cd907      Cd  0.74445712  0.01912516  0.23648916     1.59700
Cd908      Cd  0.76602180  0.46330112  0.32436293     1.59600
O909        O  0.73779855  0.04174059  0.31401028    -0.79400
O910        O  0.74772683  0.47030644  0.24555084    -1.90000
Cd911      Cd  0.78241548  0.45420038  0.18806309     1.59900
O912        O  0.77241890  0.00909663  0.36826290    -0.79400
O913        O  0.76151204  0.41848021  0.13512095    -0.78100
C914        C  0.69201760  0.43695734  0.35688941     0.84500
C915        C  0.67594146  0.01434894  0.16862268     0.84100
O916        O  0.70874337  0.40987261  0.17748234    -0.77000
C917        C  0.81370550  0.02096604  0.16946651     0.84900
O918        O  0.67930397  0.43904378  0.30663684    -0.77100
C919        C  0.75555113  0.03684532  0.35962825     0.85100
C920        C  0.83493689  0.42853783  0.28178924     0.85400
O921        O  0.81499890  0.43645889  0.32404039    -0.79500
C922        C  0.75163160  0.12648656  0.40613743     0.04600
C923        C  0.77556973  0.12687211  0.45223385    -0.11600
C924        C  0.79032226  0.09641919  0.47389366     0.02100
C925        C  0.78214754  0.06593154  0.44599144    -0.10100
C926        C  0.75819029  0.06561925  0.39988575     0.04600
C927        C  0.74060748  0.09561110  0.38497554    -0.09500
H928        H  0.78454701  0.15067645  0.46830728     0.10200
H929        H  0.79573614  0.04278935  0.45810473     0.07700
H930        H  0.72170811  0.09573142  0.35007382     0.07500
C931        C  0.81727154  0.09633242  0.52096164     0.81700
N932        N  0.83013498  0.06638833  0.04158149    -0.76600
C933        C  0.85820163  0.06543115  0.07816419     0.84100
N934        N  0.87274568  0.09458812  0.09484117    -0.76600
C935        C  0.85828483  0.12471384  0.07983654     0.84200
N936        N  0.83011162  0.12565564  0.04280853    -0.78300
N937        N  0.61778707  0.15187628  0.13351321    -0.02000
C938        C  0.60752395  0.15653468  0.07846330     0.00600
C939        C  0.63653148  0.15445056  0.04176230    -0.22300
C940        C  0.66631117  0.15190057  0.07466214    -0.22500
C941        C  0.65435001  0.15238564  0.12998117     0.00500
H942        H  0.63653617  0.15941634  0.99658438     0.14200
H943        H  0.69364509  0.15518180  0.06012014     0.14300
N944        N  0.86828100  0.29003175  0.36521924    -0.02000
C945        C  0.88282475  0.28398173  0.41712387     0.00600
C946        C  0.85707802  0.28406509  0.45905040    -0.22300
C947        C  0.82491659  0.28821061  0.43245572    -0.22500
C948        C  0.83216299  0.28920036  0.37475682     0.00500
H949        H  0.86087842  0.27721039  0.50313980     0.14200
H950        H  0.79905968  0.28447621  0.45243243     0.14300
O951        O  0.52740888  0.17278874  0.39179775    -0.77000
C952        C  0.56143064  0.27564927  0.41419426     0.84000
O953        O  0.54984292  0.18287693  0.09495915    -0.78200
O954        O  0.99050577  0.28983944  0.05542916    -0.79600
O955        O  0.91708892  0.23412499  0.42871585    -0.79400
O956        O  0.96905093  0.16192173  0.40284964    -0.78100
Zn957      Zn  0.53932628  0.20553109  0.45311388     1.55700
O958        O  0.94372313  0.28306633  0.44304009    -0.79500
Cd959      Cd  0.95230862  0.19767900  0.46232799     1.59700
Cd960      Cd  0.00217976  0.20935272  0.07613952     1.59600
O961        O  0.92292056  0.17456125  0.02813882    -0.79400
O962        O  0.49648188  0.21965801  0.49243294    -1.90000
Cd963      Cd  0.49179970  0.26859332  0.47878548     1.59900
O964        O  0.96006825  0.18081129  0.10119960    -0.79400
O965        O  0.53303220  0.28957970  0.43333928    -0.78100
C966        C  0.57402031  0.17364036  0.05970883     0.84500
C967        C  0.49966479  0.15603396  0.37971163     0.84100
O968        O  0.56750526  0.24428058  0.41999170    -0.77000
C969        C  0.91700624  0.26617559  0.42729825     0.84900
O970        O  0.57152560  0.18081424  0.00716130    -0.77100
C971        C  0.93068013  0.17062100  0.08051556     0.85100
C972        C  0.99190183  0.28255044  0.10784332     0.85400
O973        O  0.99691668  0.25260531  0.12544577    -0.79500
C974        C  0.50843941  0.06464692  0.35108192     0.04600
C975        C  0.49360252  0.09552822  0.36853211    -0.11600
C976        C  0.50498223  0.12568974  0.34499519     0.02100
C977        C  0.52861229  0.12508823  0.29845574    -0.10100
C978        C  0.54133782  0.09436875  0.27597004     0.04600
C979        C  0.53154455  0.06412797  0.30354831    -0.09500
H980        H  0.47653896  0.09663131  0.40581457     0.09400
H981        H  0.53804265  0.14859662  0.28135067     0.07700
H982        H  0.54311562  0.04042862  0.28983129     0.07500
C983        C  0.56712799  0.09398935  0.22716313     0.81700
N984        N  0.57898244  0.12338002  0.20338502    -0.76600
C985        C  0.60441718  0.12236878  0.16163835     0.84100
N986        N  0.61788400  0.09236446  0.14495558    -0.76600
C987        C  0.60576422  0.06323441  0.16618364     0.84200
N988        N  0.57973431  0.06397407  0.20660863    -0.78300
N989        N  0.61526540  0.03322149  0.13614923    -0.02000
C990        C  0.59978108  0.02997391  0.08463319     0.00600
C991        C  0.62506872  0.52506053  0.04247021    -0.22300
C992        C  0.65762219  0.52295845  0.06903731    -0.22500
C993        C  0.65073265  0.02730177  0.12601001     0.00500
H994        H  0.61995687  0.51894527  0.99857912     0.14200
H995        H  0.68283696  0.51511535  0.04989295     0.14300
N996        N  0.88916273  0.40978126  0.33837795    -0.02000
C997        C  0.91762700  0.43060010  0.34457685     0.00600
C998        C  0.92331353  0.45014289  0.29724433    -0.22300
C999        C  0.89572141  0.44397673  0.26181178    -0.22500
C1000       C  0.87353897  0.42193030  0.28992792     0.00500
H1001       H  0.94396119  0.46858459  0.29100902     0.14200
H1002       H  0.88944313  0.45825779  0.22392101     0.14300
O1003       O  0.95644988  0.41023368  0.07566315    -0.77000
C1004       C  0.92640723  0.01453747  0.07976539     0.84000
O1005       O  0.97477557  0.43744145  0.38266908    -0.78200
O1006       O  0.48533402  0.03948320  0.43433997    -0.79600
O1007       O  0.55244454  0.49344370  0.10429166    -0.79400
O1008       O  0.51009051  0.41780657  0.11543969    -0.78100
Zn1009     Zn  0.95043365  0.44965268  0.01962825     1.55700
O1010       O  0.54468128  0.03118389  0.03583251    -0.79500
Cd1011     Cd  0.53109452  0.45320694  0.06160182     1.59700
Cd1012     Cd  0.51498537  0.46125943  0.42515775     1.59600
O1013       O  0.57468990  0.43279188  0.52017353    -0.79400
O1014       O  0.99643452  0.46830529  0.50352114    -1.90000
Cd1015     Cd  0.99427691  0.01700739  0.01107437     1.59900
O1016       O  0.56496021  0.43619040  0.42661598    -0.79400
O1017       O  0.95495341  0.03027035  0.06812886    -0.78100
C1018       C  0.94154325  0.43311988  0.39372331     0.84500
C1019       C  0.98069072  0.40216686  0.11192641     0.84100
O1020       O  0.92019516  0.48534999  0.06031129    -0.77000
C1021       C  0.56300131  0.01886259  0.07650618     0.84900
O1022       O  0.92822063  0.43638799  0.44355967    -0.77100
C1023       C  0.58512200  0.42917474  0.46899483     0.85100
C1024       C  0.50414733  0.03519264  0.38971000     0.85400
O1025       O  0.52099348  0.00743606  0.38117651    -0.79500
C1026       C  0.93086876  0.33727059  0.27646454     0.81700
N1027       N  0.90954698  0.31152062  0.29334140    -0.76600
C1028       C  0.88323049  0.31743822  0.33306306     0.84100
N1029       N  0.87608124  0.34981655  0.35011943    -0.76600
C1030       C  0.89916521  0.37465493  0.33600608     0.84200
N1031       N  0.92807458  0.36670664  0.30386476    -0.78300
C1032       C  0.98579110  0.31084353  0.14648588     0.04600
C1033       C  0.96541877  0.30824032  0.19677281    -0.11600
C1034       C  0.95151842  0.33759665  0.22237436     0.02100
C1035       C  0.95649340  0.36897017  0.19470175    -0.10100
C1036       C  0.97710548  0.37118287  0.14536127     0.04600
C1037       C  0.99349271  0.34253640  0.12415350    -0.09500
H1038       H  0.95928729  0.28385597  0.21429744     0.10200
H1039       H  0.94413644  0.39174498  0.21097086     0.07700
H1040       H  0.50949248  0.34471580  0.08579099     0.07500
N1041       N  0.62167920  0.29363040  0.88271181    -0.02000
C1042       C  0.63349388  0.28848961  0.82888662     0.00600
C1043       C  0.60588800  0.29268264  0.79021902    -0.22300
C1044       C  0.57526579  0.29710540  0.82116960    -0.22500
C1045       C  0.58525063  0.29504131  0.87742334     0.00500
H1046       H  0.60693624  0.28782942  0.74510310     0.14200
H1047       H  0.54829712  0.29508351  0.80455836     0.14300
N1048       N  0.86864516  0.15352572  0.61251474    -0.02000
C1049       C  0.85439889  0.15582271  0.66587208     0.00600
C1050       C  0.88077025  0.15585340  0.70677888    -0.22300
C1051       C  0.91264622  0.15649683  0.67889467    -0.22500
C1052       C  0.90463166  0.15685654  0.62166276     0.00500
H1053       H  0.87706640  0.16045782  0.75165829     0.14200
H1054       H  0.93844899  0.16086821  0.69832590     0.14300
O1055       O  0.71461857  0.26444588  0.64716207    -0.77000
C1056       C  0.67710623  0.16858203  0.67147872     0.84000
O1057       O  0.68826982  0.25755373  0.85041348    -0.78200
O1058       O  0.74737982  0.14848919  0.81473916    -0.79600
O1059       O  0.82154638  0.20557696  0.68398271    -0.79400
O1060       O  0.77215464  0.27662433  0.66118327    -0.78100
Zn1061     Zn  0.70172668  0.23549321  0.71182294     1.55700
O1062       O  0.79437226  0.15681074  0.69814461    -0.79500
Cd1063     Cd  0.78750993  0.24142432  0.72082618     1.59700
Cd1064     Cd  0.73674143  0.23026143  0.83533520     1.59600
O1065       O  0.81556329  0.26643961  0.78462582    -0.79400
O1066       O  0.74334651  0.21991227  0.75206690    -1.90000
Cd1067     Cd  0.74686243  0.17111279  0.73767677     1.59900
O1068       O  0.77804361  0.26117341  0.85804080    -0.79400
O1069       O  0.70516124  0.15335556  0.68934442    -0.78100
C1070       C  0.66654283  0.26952897  0.81326176     0.84500
C1071       C  0.74224304  0.28139852  0.63603391     0.84100
O1072       O  0.67122136  0.19943641  0.68096067    -0.77000
C1073       C  0.82081758  0.17365938  0.68032221     0.84900
O1074       O  0.67076007  0.26342907  0.76090079    -0.77100
C1075       C  0.80697552  0.27221603  0.83616947     0.85100
C1076       C  0.74637826  0.15555675  0.86735084     0.85400
O1077       O  0.74229275  0.18573344  0.88484303    -0.79500
C1078       C  0.68383248  0.34099533  0.47221101     0.81700
N1079       N  0.67990140  0.37108984  0.94693155    -0.76600
C1080       C  0.65153006  0.37850544  0.91341642     0.84100
N1081       N  0.63006817  0.35320759  0.89681222    -0.76600
C1082       C  0.63816073  0.32081060  0.91273540     0.84200
N1083       N  0.66401133  0.31484218  0.95301600    -0.78300
C1084       C  0.72881538  0.37141352  0.60667115     0.04600
C1085       C  0.70974850  0.37092307  0.55559487    -0.11600
C1086       C  0.70419411  0.34032880  0.52635967     0.02100
C1087       C  0.71700854  0.31032882  0.55069700    -0.10100
C1088       C  0.73693393  0.31119590  0.60123074     0.04600
C1089       C  0.74361002  0.34172129  0.62772848    -0.09500
H1090       H  0.69867398  0.39437623  0.53956421     0.10200
H1091       H  0.71097847  0.28650509  0.53134896     0.07700
H1092       H  0.75754706  0.34203639  0.66809412     0.07500
N1093       N  0.63991925  0.41310875  0.91179050    -0.02000
C1094       C  0.66745533  0.43487456  0.90541973     0.00600
C1095       C  0.67268265  0.45387165  0.95320366    -0.22300
C1096       C  0.64552294  0.44612627  0.98910230    -0.22500
C1097       C  0.62396017  0.42395488  0.96066616     0.00500
H1098       H  0.69306762  0.47244281  0.95995427     0.14200
H1099       H  0.63919479  0.45894883  0.02817618     0.14300
N1100       N  0.86653312  0.03590226  0.61092954    -0.02000
C1101       C  0.85017414  0.03322818  0.66207406     0.00600
C1102       C  0.87486231  0.52703475  0.70464638    -0.22300
C1103       C  0.90761882  0.52376405  0.67882405    -0.22500
C1104       C  0.90157273  0.02860974  0.62175728     0.00500
H1105       H  0.86899613  0.52039548  0.74822656     0.14200
H1106       H  0.93217032  0.51462536  0.69846125     0.14300
O1107       O  0.67141517  0.48463973  0.68738333    -0.77000
C1108       C  0.73269586  0.40206599  0.64053283     0.84000
O1109       O  0.72512808  0.44124048  0.86821609    -0.78200
O1110       O  0.82484737  0.43258930  0.73056875    -0.79600
O1111       O  0.79394641  0.03406581  0.70773813    -0.79400
O1112       O  0.70331469  0.03150952  0.68126779    -0.78100
Zn1113     Zn  0.70217623  0.45048576  0.73038944     1.55700
O1114       O  0.80533663  0.49387240  0.64478457    -0.79500
Cd1115     Cd  0.74445708  0.01912515  0.73648899     1.59700
Cd1116     Cd  0.76602184  0.46330113  0.82436279     1.59600
O1117       O  0.73779852  0.04174059  0.81401021    -0.79400
O1118       O  0.74772689  0.47030650  0.74555070    -1.90000
Cd1119     Cd  0.78241563  0.45420033  0.68806321     1.59900
O1120       O  0.77241886  0.00909659  0.86826278    -0.79400
O1121       O  0.76151213  0.41848015  0.63512113    -0.78100
C1122       C  0.69201761  0.43695733  0.85688942     0.84500
C1123       C  0.67594144  0.01434890  0.66862256     0.84100
O1124       O  0.70874339  0.40987260  0.67748237    -0.77000
C1125       C  0.81370546  0.02096607  0.66946654     0.84900
O1126       O  0.67930391  0.43904377  0.80663690    -0.77100
C1127       C  0.75555109  0.03684529  0.85962821     0.85100
C1128       C  0.83493692  0.42853779  0.78178936     0.85400
O1129       O  0.81499894  0.43645890  0.82404049    -0.79500
C1130       C  0.75163169  0.12648654  0.90613743     0.04600
C1131       C  0.77556978  0.12687208  0.95223390    -0.11600
C1132       C  0.79032229  0.09641916  0.97389372     0.02100
C1133       C  0.78214755  0.06593150  0.94599149    -0.10100
C1134       C  0.75819027  0.06561920  0.89988579     0.04600
C1135       C  0.74060754  0.09561108  0.88497556    -0.09500
H1136       H  0.78454707  0.15067644  0.96830735     0.10200
H1137       H  0.79573618  0.04278930  0.95810476     0.07700
H1138       H  0.72170815  0.09573142  0.85007382     0.07500
C1139       C  0.81727156  0.09633240  0.02096166     0.81700
N1140       N  0.83013500  0.06638833  0.54158141    -0.76600
C1141       C  0.85820162  0.06543114  0.57816418     0.84100
N1142       N  0.87274560  0.09458811  0.59484128    -0.76600
C1143       C  0.85828476  0.12471383  0.57983665     0.84200
N1144       N  0.83011161  0.12565566  0.54280850    -0.78300
N1145       N  0.61778704  0.15187625  0.63351314    -0.02000
C1146       C  0.60752393  0.15653464  0.57846318     0.00600
C1147       C  0.63653151  0.15445055  0.54176228    -0.22300
C1148       C  0.66631118  0.15190057  0.57466217    -0.22500
C1149       C  0.65434999  0.15238560  0.62998118     0.00500
H1150       H  0.63653627  0.15941637  0.49658429     0.14200
H1151       H  0.69364513  0.15518186  0.56012030     0.14300
N1152       N  0.86828106  0.29003173  0.86521918    -0.02000
C1153       C  0.88282478  0.28398172  0.91712382     0.00600
C1154       C  0.85707800  0.28406506  0.95905032    -0.22300
C1155       C  0.82491660  0.28821060  0.93245558    -0.22500
C1156       C  0.83216304  0.28920035  0.87475672     0.00500
H1157       H  0.86087831  0.27721036  0.00313976     0.14200
H1158       H  0.79905962  0.28447621  0.95243216     0.14300
O1159       O  0.52740902  0.17278869  0.89179790    -0.77000
C1160       C  0.56143067  0.27564924  0.91419427     0.84000
O1161       O  0.54984290  0.18287689  0.59495897    -0.78200
O1162       O  0.99050573  0.28983945  0.55542914    -0.79600
O1163       O  0.91708898  0.23412494  0.92871578    -0.79400
O1164       O  0.96905092  0.16192169  0.90284975    -0.78100
Zn1165     Zn  0.53932640  0.20553106  0.95311407     1.55700
O1166       O  0.94372320  0.28306628  0.94303991    -0.79500
Cd1167     Cd  0.95230874  0.19767900  0.96232812     1.59700
Cd1168     Cd  0.00217973  0.20935270  0.57613950     1.59600
O1169       O  0.92292057  0.17456119  0.52813878    -0.79400
O1170       O  0.49648189  0.21965799  0.99243297    -1.90000
Cd1171     Cd  0.49179970  0.26859331  0.97878553     1.59900
O1172       O  0.96006825  0.18081126  0.60119962    -0.79400
O1173       O  0.53303221  0.28957967  0.93333924    -0.78100
C1174       C  0.57402028  0.17364032  0.55970863     0.84500
C1175       C  0.49966492  0.15603395  0.87971170     0.84100
O1176       O  0.56750531  0.24428055  0.91999179    -0.77000
C1177       C  0.91700629  0.26617555  0.92729817     0.84900
O1178       O  0.57152555  0.18081421  0.50716108    -0.77100
C1179       C  0.93068013  0.17062096  0.58051554     0.85100
C1180       C  0.99190179  0.28255042  0.60784330     0.85400
O1181       O  0.99691664  0.25260528  0.62544573    -0.79500
C1182       C  0.50843941  0.06464693  0.85108194     0.04600
C1183       C  0.49360264  0.09552825  0.86853220    -0.11600
C1184       C  0.50498233  0.12568974  0.84499524     0.02100
C1185       C  0.52861234  0.12508822  0.79845571    -0.10100
C1186       C  0.54133778  0.09436871  0.77596998     0.04600
C1187       C  0.53154453  0.06412795  0.80354830    -0.09500
H1188       H  0.47653915  0.09663138  0.90581479     0.09400
H1189       H  0.53804273  0.14859656  0.78135065     0.07700
H1190       H  0.54311563  0.04042859  0.78983129     0.07500
C1191       C  0.56712792  0.09398932  0.72716303     0.81700
N1192       N  0.57898246  0.12337999  0.70338505    -0.76600
C1193       C  0.60441716  0.12236876  0.66163833     0.84100
N1194       N  0.61788395  0.09236445  0.64495551    -0.76600
C1195       C  0.60576423  0.06323440  0.66618367     0.84200
N1196       N  0.57973424  0.06397404  0.70660851    -0.78300
N1197       N  0.61526540  0.03322150  0.63614923    -0.02000
C1198       C  0.59978105  0.02997395  0.58463324     0.00600
C1199       C  0.62506869  0.52506049  0.54247026    -0.22300
C1200       C  0.65762216  0.52295842  0.56903729    -0.22500
C1201       C  0.65073264  0.02730176  0.62600997     0.00500
H1202       H  0.61995686  0.51894523  0.49857911     0.14200
H1203       H  0.68283694  0.51511532  0.54989290     0.14300
N1204       N  0.88916275  0.40978124  0.83837803    -0.02000
C1205       C  0.91762700  0.43060010  0.84457688     0.00600
C1206       C  0.92331350  0.45014288  0.79724438    -0.22300
C1207       C  0.89572137  0.44397671  0.76181187    -0.22500
C1208       C  0.87353898  0.42193026  0.78992801     0.00500
H1209       H  0.94396117  0.46858457  0.79100902     0.14200
H1210       H  0.88944308  0.45825776  0.72392104     0.14300
O1211       O  0.95644985  0.41023373  0.57566327    -0.77000
C1212       C  0.92640720  0.01453744  0.57976556     0.84000
O1213       O  0.97477560  0.43744142  0.88266903    -0.78200
O1214       O  0.48533403  0.03948322  0.93433998    -0.79600
O1215       O  0.55244451  0.49344369  0.60429185    -0.79400
O1216       O  0.51009064  0.41780653  0.61543989    -0.78100
Zn1217     Zn  0.95043361  0.44965279  0.51962838     1.55700
O1218       O  0.54468123  0.03118388  0.53583268    -0.79500
Cd1219     Cd  0.53109449  0.45320695  0.56160194     1.59700
Cd1220     Cd  0.51498536  0.46125942  0.92515782     1.59600
O1221       O  0.57468989  0.43279171  0.02017349    -0.79400
O1222       O  0.99643453  0.46830521  0.00352115    -1.90000
Cd1223     Cd  0.99427690  0.01700741  0.51107448     1.59900
O1224       O  0.56496018  0.43619039  0.92661598    -0.79400
O1225       O  0.95495338  0.03027032  0.56812905    -0.78100
C1226       C  0.94154328  0.43311986  0.89372324     0.84500
C1227       C  0.98069067  0.40216684  0.61192652     0.84100
O1228       O  0.92019509  0.48535002  0.56031152    -0.77000
C1229       C  0.56300129  0.01886259  0.57650631     0.84900
O1230       O  0.92822069  0.43638793  0.94355959    -0.77100
C1231       C  0.58512199  0.42917466  0.96899477     0.85100
C1232       C  0.50414730  0.03519268  0.88971000     0.85400
O1233       O  0.52099345  0.00743611  0.88117647    -0.79500
C1234       C  0.93086885  0.33727060  0.77646458     0.81700
N1235       N  0.90954700  0.31152065  0.79334131    -0.76600
C1236       C  0.88323058  0.31743822  0.83306309     0.84100
N1237       N  0.87608138  0.34981652  0.85011962    -0.76600
C1238       C  0.89916528  0.37465492  0.83600613     0.84200
N1239       N  0.92807463  0.36670666  0.80386476    -0.78300
C1240       C  0.98579112  0.31084349  0.64648596     0.04600
C1241       C  0.96541891  0.30824029  0.69677301    -0.11600
C1242       C  0.95151858  0.33759664  0.72237454     0.02100
C1243       C  0.95649345  0.36897015  0.69470187    -0.10100
C1244       C  0.97710542  0.37118282  0.64536131     0.04600
C1245       C  0.99349269  0.34253637  0.62415356    -0.09500
H1246       H  0.95928744  0.28385595  0.71429769     0.10200
H1247       H  0.94413649  0.39174495  0.71097095     0.07700
H1248       H  0.50949251  0.34471576  0.58579107     0.07500
N1249       N  0.62167918  0.79363041  0.38271173    -0.02000
C1250       C  0.63349384  0.78848959  0.32888652     0.00600
C1251       C  0.60588794  0.79268264  0.29021895    -0.22300
C1252       C  0.57526574  0.79710539  0.32116957    -0.22500
C1253       C  0.58525060  0.79504131  0.37742330     0.00500
H1254       H  0.60693614  0.78782943  0.24510301     0.14200
H1255       H  0.54829708  0.79508352  0.30455832     0.14300
N1256       N  0.86864521  0.65352572  0.11251466    -0.02000
C1257       C  0.85439893  0.65582271  0.16587200     0.00600
C1258       C  0.88077029  0.65585339  0.20677875    -0.22300
C1259       C  0.91264627  0.65649682  0.17889463    -0.22500
C1260       C  0.90463169  0.65685653  0.12166273     0.00500
H1261       H  0.87706640  0.66045782  0.25165823     0.14200
H1262       H  0.93844900  0.66086820  0.19832590     0.14300
O1263       O  0.71461848  0.76444587  0.14716224    -0.77000
C1264       C  0.67710633  0.66858203  0.17147867     0.84000
O1265       O  0.68826986  0.75755378  0.35041323    -0.78200
O1266       O  0.74737967  0.64848916  0.31473915    -0.79600
O1267       O  0.82154647  0.70557696  0.18398275    -0.79400
O1268       O  0.77215457  0.77662436  0.16118345    -0.78100
Zn1269     Zn  0.70172658  0.73549319  0.21182308     1.55700
O1270       O  0.79437236  0.65681074  0.19814473    -0.79500
Cd1271     Cd  0.78750998  0.74142432  0.22082612     1.59700
Cd1272     Cd  0.73674147  0.73026144  0.33533503     1.59600
O1273       O  0.81556326  0.76643963  0.28462587    -0.79400
O1274       O  0.74334655  0.71991228  0.25206679    -1.90000
Cd1275     Cd  0.74686248  0.67111279  0.23767686     1.59900
O1276       O  0.77804359  0.76117338  0.35804089    -0.79400
O1277       O  0.70516138  0.65335558  0.18934428    -0.78100
C1278       C  0.66654279  0.76952897  0.31326161     0.84500
C1279       C  0.74224296  0.78139853  0.13603410     0.84100
O1280       O  0.67122137  0.69943638  0.18096079    -0.77000
C1281       C  0.82081764  0.67365937  0.18032222     0.84900
O1282       O  0.67075994  0.76342907  0.26090066    -0.77100
C1283       C  0.80697549  0.77221602  0.33616955     0.85100
C1284       C  0.74637808  0.65555675  0.36735082     0.85400
O1285       O  0.74229260  0.68573345  0.38484294    -0.79500
C1286       C  0.68383250  0.84099536  0.97221103     0.81700
N1287       N  0.67990148  0.87108980  0.44693142    -0.76600
C1288       C  0.65153008  0.87850544  0.41341643     0.84100
N1289       N  0.63006823  0.85320760  0.39681208    -0.76600
C1290       C  0.63816070  0.82081061  0.41273535     0.84200
N1291       N  0.66401120  0.81484220  0.45301615    -0.78300
C1292       C  0.72881529  0.87141349  0.10667120     0.04600
C1293       C  0.70974857  0.87092307  0.05559480    -0.11600
C1294       C  0.70419418  0.84032879  0.02635962     0.02100
C1295       C  0.71700857  0.81032880  0.05069702    -0.10100
C1296       C  0.73693388  0.81119589  0.10123085     0.04600
C1297       C  0.74360990  0.84172128  0.12772858    -0.09500
H1298       H  0.69867413  0.89437625  0.03956407     0.10200
H1299       H  0.71097850  0.78650505  0.03134903     0.07700
H1300       H  0.75754693  0.84203641  0.16809431     0.07500
N1301       N  0.63991925  0.91310876  0.41179056    -0.02000
C1302       C  0.66745532  0.93487459  0.40541971     0.00600
C1303       C  0.67268266  0.95387167  0.45320365    -0.22300
C1304       C  0.64552299  0.94612626  0.48910239    -0.22500
C1305       C  0.62396018  0.92395488  0.46066624     0.00500
H1306       H  0.69306761  0.97244282  0.45995421     0.14200
H1307       H  0.63919489  0.95894881  0.52817626     0.14300
N1308       N  0.86653315  0.53590228  0.11092951    -0.02000
C1309       C  0.85017416  0.53322817  0.16207402     0.00600
C1310       C  0.87486235  0.02703479  0.20464631    -0.22300
C1311       C  0.90761883  0.02376403  0.17882392    -0.22500
C1312       C  0.90157277  0.52860977  0.12175715     0.00500
H1313       H  0.86899618  0.02039552  0.24822649     0.14200
H1314       H  0.93217035  0.01462532  0.19846111     0.14300
O1315       O  0.67141514  0.98463972  0.18738344    -0.77000
C1316       C  0.73269580  0.90206598  0.14053278     0.84000
O1317       O  0.72512810  0.94124046  0.36821618    -0.78200
O1318       O  0.82484736  0.93258932  0.23056861    -0.79600
O1319       O  0.79394643  0.53406578  0.20773815    -0.79400
O1320       O  0.70331474  0.53150952  0.18126795    -0.78100
Zn1321     Zn  0.70217627  0.95048575  0.23038936     1.55700
O1322       O  0.80533663  0.99387239  0.14478449    -0.79500
Cd1323     Cd  0.74445712  0.51912515  0.23648916     1.59700
Cd1324     Cd  0.76602185  0.96330112  0.32436293     1.59600
O1325       O  0.73779852  0.54174060  0.31401025    -0.79400
O1326       O  0.74772686  0.97030643  0.24555084    -1.90000
Cd1327     Cd  0.78241551  0.95420034  0.18806309     1.59900
O1328       O  0.77241872  0.50909658  0.36826299    -0.79400
O1329       O  0.76151205  0.91848016  0.13512093    -0.78100
C1330       C  0.69201764  0.93695732  0.35688941     0.84500
C1331       C  0.67594148  0.51434893  0.16862268     0.84100
O1332       O  0.70874339  0.90987261  0.17748237    -0.77000
C1333       C  0.81370546  0.52096608  0.16946650     0.84900
O1334       O  0.67930401  0.93904375  0.30663685    -0.77100
C1335       C  0.75555103  0.53684530  0.35962828     0.85100
C1336       C  0.83493693  0.92853781  0.28178923     0.85400
O1337       O  0.81499893  0.93645885  0.32404038    -0.79500
C1338       C  0.75163158  0.62648654  0.40613743     0.04600
C1339       C  0.77556975  0.62687209  0.45223382    -0.11600
C1340       C  0.79032229  0.59641916  0.47389364     0.02100
C1341       C  0.78214756  0.56593151  0.44599142    -0.10100
C1342       C  0.75819027  0.56561922  0.39988576     0.04600
C1343       C  0.74060749  0.59561108  0.38497552    -0.09500
H1344       H  0.78454702  0.65067643  0.46830725     0.10200
H1345       H  0.79573615  0.54278931  0.45810471     0.07700
H1346       H  0.72170811  0.59573140  0.35007384     0.07500
C1347       C  0.81727157  0.59633241  0.52096164     0.81700
N1348       N  0.83013497  0.56638833  0.04158146    -0.76600
C1349       C  0.85820158  0.56543116  0.07816423     0.84100
N1350       N  0.87274567  0.59458813  0.09484113    -0.76600
C1351       C  0.85828481  0.62471385  0.07983654     0.84200
N1352       N  0.83011153  0.62565565  0.04280864    -0.78300
N1353       N  0.61778711  0.65187625  0.13351321    -0.02000
C1354       C  0.60752397  0.65653465  0.07846329     0.00600
C1355       C  0.63653150  0.65445053  0.04176230    -0.22300
C1356       C  0.66631120  0.65190057  0.07466213    -0.22500
C1357       C  0.65435005  0.65238561  0.12998117     0.00500
H1358       H  0.63653621  0.65941633  0.99658438     0.14200
H1359       H  0.69364511  0.65518186  0.06012011     0.14300
N1360       N  0.86828103  0.79003173  0.36521924    -0.02000
C1361       C  0.88282477  0.78398170  0.41712386     0.00600
C1362       C  0.85707805  0.78406507  0.45905039    -0.22300
C1363       C  0.82491663  0.78821059  0.43245571    -0.22500
C1364       C  0.83216302  0.78920033  0.37475683     0.00500
H1365       H  0.86087844  0.77721037  0.50313980     0.14200
H1366       H  0.79905969  0.78447619  0.45243246     0.14300
O1367       O  0.52740892  0.67278872  0.39179775    -0.77000
C1368       C  0.56143068  0.77564924  0.41419427     0.84000
O1369       O  0.54984295  0.68287690  0.09495915    -0.78200
O1370       O  0.99050561  0.78983941  0.05542917    -0.79600
O1371       O  0.91708895  0.73412496  0.42871586    -0.79400
O1372       O  0.96905095  0.66192171  0.40284967    -0.78100
Zn1373     Zn  0.53932631  0.70553106  0.45311388     1.55700
O1374       O  0.94372311  0.78306633  0.44304007    -0.79500
Cd1375     Cd  0.95230865  0.69767897  0.46232800     1.59700
Cd1376     Cd  0.00217977  0.70935269  0.07613951     1.59600
O1377       O  0.92292050  0.67456121  0.02813884    -0.79400
O1378       O  0.49648191  0.71965798  0.49243294    -1.90000
Cd1379     Cd  0.49179974  0.76859329  0.47878548     1.59900
O1380       O  0.96006824  0.68081128  0.10119958    -0.79400
O1381       O  0.53303224  0.78957967  0.43333928    -0.78100
C1382       C  0.57402033  0.67364033  0.05970881     0.84500
C1383       C  0.49966483  0.65603393  0.37971163     0.84100
O1384       O  0.56750529  0.74428055  0.41999170    -0.77000
C1385       C  0.91700625  0.76617556  0.42729824     0.84900
O1386       O  0.57152558  0.68081421  0.00716127    -0.77100
C1387       C  0.93068011  0.67062098  0.08051556     0.85100
C1388       C  0.99190178  0.78255042  0.10784333     0.85400
O1389       O  0.99691675  0.75260530  0.12544576    -0.79500
C1390       C  0.50843943  0.56464692  0.35108192     0.04600
C1391       C  0.49360254  0.59552822  0.36853206    -0.11600
C1392       C  0.50498226  0.62568972  0.34499518     0.02100
C1393       C  0.52861233  0.62508821  0.29845574    -0.10100
C1394       C  0.54133785  0.59436872  0.27597004     0.04600
C1395       C  0.53154458  0.56412796  0.30354832    -0.09500
H1396       H  0.47653893  0.59663131  0.40581451     0.09400
H1397       H  0.53804269  0.64859660  0.28135067     0.07700
H1398       H  0.54311565  0.54042859  0.28983132     0.07500
C1399       C  0.56712803  0.59398933  0.22716313     0.81700
N1400       N  0.57898247  0.62337999  0.20338503    -0.76600
C1401       C  0.60441722  0.62236876  0.16163835     0.84100
N1402       N  0.61788404  0.59236444  0.14495560    -0.76600
C1403       C  0.60576428  0.56323440  0.16618368     0.84200
N1404       N  0.57973435  0.56397404  0.20660863    -0.78300
N1405       N  0.61526542  0.53322149  0.13614921    -0.02000
C1406       C  0.59978109  0.52997396  0.08463317     0.00600
C1407       C  0.62506870  0.02506052  0.04247020    -0.22300
C1408       C  0.65762216  0.02295848  0.06903731    -0.22500
C1409       C  0.65073267  0.52730176  0.12600999     0.00500
H1410       H  0.61995685  0.01894529  0.99857909     0.14200
H1411       H  0.68283694  0.01511541  0.04989294     0.14300
N1412       N  0.88916274  0.90978125  0.33837798    -0.02000
C1413       C  0.91762702  0.93060009  0.34457686     0.00600
C1414       C  0.92331357  0.95014286  0.29724433    -0.22300
C1415       C  0.89572144  0.94397670  0.26181178    -0.22500
C1416       C  0.87353900  0.92193028  0.28992793     0.00500
H1417       H  0.94396123  0.96858456  0.29100901     0.14200
H1418       H  0.88944317  0.95825777  0.22392101     0.14300
O1419       O  0.95644992  0.91023371  0.07566313    -0.77000
C1420       C  0.92640724  0.51453745  0.07976537     0.84000
O1421       O  0.97477560  0.93744142  0.38266908    -0.78200
O1422       O  0.48533403  0.53948328  0.43434001    -0.79600
O1423       O  0.55244451  0.99344368  0.10429166    -0.79400
O1424       O  0.51009049  0.91780654  0.11543968    -0.78100
Zn1425     Zn  0.95043368  0.94965278  0.01962825     1.55700
O1426       O  0.54468130  0.53118388  0.03583247    -0.79500
Cd1427     Cd  0.53109453  0.95320693  0.06160182     1.59700
Cd1428     Cd  0.51498527  0.96125942  0.42515775     1.59600
O1429       O  0.57468989  0.93279184  0.52017354    -0.79400
O1430       O  0.99643455  0.96830529  0.50352114    -1.90000
Cd1431     Cd  0.99427694  0.51700736  0.01107436     1.59900
O1432       O  0.56496014  0.93619038  0.42661600    -0.79400
O1433       O  0.95495344  0.53027032  0.06812886    -0.78100
C1434       C  0.94154328  0.93311986  0.39372331     0.84500
C1435       C  0.98069073  0.90216684  0.11192641     0.84100
O1436       O  0.92019516  0.98535001  0.06031131    -0.77000
C1437       C  0.56300133  0.51886261  0.07650616     0.84900
O1438       O  0.92822066  0.93638796  0.44355968    -0.77100
C1439       C  0.58512198  0.92917473  0.46899483     0.85100
C1440       C  0.50414730  0.53519267  0.38971001     0.85400
O1441       O  0.52099339  0.50743605  0.38117645    -0.79500
C1442       C  0.93086882  0.83727059  0.27646460     0.81700
N1443       N  0.90954703  0.81152063  0.29334145    -0.76600
C1444       C  0.88323052  0.81743822  0.33306308     0.84100
N1445       N  0.87608127  0.84981655  0.35011945    -0.76600
C1446       C  0.89916523  0.87465493  0.33600610     0.84200
N1447       N  0.92807458  0.86670666  0.30386476    -0.78300
C1448       C  0.98579110  0.81084350  0.14648592     0.04600
C1449       C  0.96541881  0.80824030  0.19677289    -0.11600
C1450       C  0.95151846  0.83759664  0.22237442     0.02100
C1451       C  0.95649334  0.86897014  0.19470171    -0.10100
C1452       C  0.97710546  0.87118284  0.14536128     0.04600
C1453       C  0.99349271  0.84253638  0.12415352    -0.09500
H1454       H  0.95928732  0.78385596  0.21429753     0.10200
H1455       H  0.94413628  0.89174491  0.21097074     0.07700
H1456       H  0.50949249  0.84471579  0.08579101     0.07500
N1457       N  0.62167920  0.79363042  0.88271183    -0.02000
C1458       C  0.63349385  0.78848965  0.82888663     0.00600
C1459       C  0.60588796  0.79268282  0.79021905    -0.22300
C1460       C  0.57526577  0.79710556  0.82116968    -0.22500
C1461       C  0.58525063  0.79504132  0.87742338     0.00500
H1462       H  0.60693617  0.78782964  0.74510311     0.14200
H1463       H  0.54829708  0.79508369  0.80455847     0.14300
N1464       N  0.86864519  0.65352572  0.61251474    -0.02000
C1465       C  0.85439892  0.65582269  0.66587209     0.00600
C1466       C  0.88077028  0.65585342  0.70677888    -0.22300
C1467       C  0.91264625  0.65649695  0.67889468    -0.22500
C1468       C  0.90463168  0.65685658  0.62166276     0.00500
H1469       H  0.87706642  0.66045778  0.75165832     0.14200
H1470       H  0.93844899  0.66086838  0.69832590     0.14300
O1471       O  0.71461855  0.76444584  0.64716208    -0.77000
C1472       C  0.67710626  0.66858210  0.67147871     0.84000
O1473       O  0.68826979  0.75755372  0.85041339    -0.78200
O1474       O  0.74737966  0.64848914  0.81473917    -0.79600
O1475       O  0.82154642  0.70557694  0.68398271    -0.79400
O1476       O  0.77215462  0.77662430  0.66118326    -0.78100
Zn1477     Zn  0.70172668  0.73549322  0.71182299     1.55700
O1478       O  0.79437230  0.65681071  0.69814462    -0.79500
Cd1479     Cd  0.78750994  0.74142429  0.72082616     1.59700
Cd1480     Cd  0.73674147  0.73026143  0.83533520     1.59600
O1481       O  0.81556322  0.76643961  0.78462584    -0.79400
O1482       O  0.74334654  0.71991225  0.75206691    -1.90000
Cd1483     Cd  0.74686244  0.67111277  0.73767678     1.59900
O1484       O  0.77804353  0.76117352  0.85804086    -0.79400
O1485       O  0.70516125  0.65335559  0.68934439    -0.78100
C1486       C  0.66654279  0.76952900  0.81326172     0.84500
C1487       C  0.74224301  0.78139849  0.63603391     0.84100
O1488       O  0.67122141  0.69943648  0.68096073    -0.77000
C1489       C  0.82081761  0.67365935  0.68032222     0.84900
O1490       O  0.67076001  0.76342916  0.76090073    -0.77100
C1491       C  0.80697544  0.77221610  0.83616949     0.85100
C1492       C  0.74637816  0.65555672  0.86735085     0.85400
O1493       O  0.74229281  0.68573343  0.88484303    -0.79500
C1494       C  0.68383252  0.84099531  0.47221099     0.81700
N1495       N  0.67990143  0.87108986  0.94693149    -0.76600
C1496       C  0.65153007  0.87850546  0.91341638     0.84100
N1497       N  0.63006819  0.85320763  0.89681215    -0.76600
C1498       C  0.63816072  0.82081063  0.91273539     0.84200
N1499       N  0.66401123  0.81484224  0.95301614    -0.78300
C1500       C  0.72881534  0.87141349  0.60667116     0.04600
C1501       C  0.70974852  0.87092305  0.55559483    -0.11600
C1502       C  0.70419413  0.84032877  0.52635963     0.02100
C1503       C  0.71700856  0.81032878  0.55069696    -0.10100
C1504       C  0.73693389  0.81119587  0.60123076     0.04600
C1505       C  0.74360992  0.84172125  0.62772855    -0.09500
H1506       H  0.69867402  0.89437621  0.53956416     0.10200
H1507       H  0.71097851  0.78650506  0.53134890     0.07700
H1508       H  0.75754691  0.84203634  0.66809428     0.07500
N1509       N  0.63991925  0.91310877  0.91179050    -0.02000
C1510       C  0.66745531  0.93487459  0.90541971     0.00600
C1511       C  0.67268264  0.95387165  0.95320365    -0.22300
C1512       C  0.64552296  0.94612623  0.98910232    -0.22500
C1513       C  0.62396017  0.92395485  0.96066619     0.00500
H1514       H  0.69306757  0.97244281  0.95995423     0.14200
H1515       H  0.63919482  0.95894884  0.02817617     0.14300
N1516       N  0.86653317  0.53590229  0.61092956    -0.02000
C1517       C  0.85017418  0.53322814  0.66207405     0.00600
C1518       C  0.87486228  0.02703478  0.70464639    -0.22300
C1519       C  0.90761877  0.02376401  0.67882405    -0.22500
C1520       C  0.90157278  0.52860981  0.62175729     0.00500
H1521       H  0.86899609  0.02039552  0.74822656     0.14200
H1522       H  0.93217028  0.01462530  0.69846127     0.14300
O1523       O  0.67141513  0.98463967  0.68738331    -0.77000
C1524       C  0.73269582  0.90206597  0.64053284     0.84000
O1525       O  0.72512809  0.94124041  0.86821612    -0.78200
O1526       O  0.82484738  0.93258928  0.73056873    -0.79600
O1527       O  0.79394647  0.53406583  0.70773813    -0.79400
O1528       O  0.70331467  0.53150962  0.68126780    -0.78100
Zn1529     Zn  0.70217622  0.95048574  0.73038942     1.55700
O1530       O  0.80533665  0.99387238  0.64478461    -0.79500
Cd1531     Cd  0.74445711  0.51912528  0.73648898     1.59700
Cd1532     Cd  0.76602181  0.96330109  0.82436277     1.59600
O1533       O  0.73779852  0.54174063  0.81401023    -0.79400
O1534       O  0.74772685  0.97030641  0.74555070    -1.90000
Cd1535     Cd  0.78241563  0.95420031  0.68806322     1.59900
O1536       O  0.77241893  0.50909665  0.86826276    -0.79400
O1537       O  0.76151207  0.91848017  0.63512108    -0.78100
C1538       C  0.69201761  0.93695737  0.85688942     0.84500
C1539       C  0.67594146  0.51434896  0.66862256     0.84100
O1540       O  0.70874337  0.90987254  0.67748243    -0.77000
C1541       C  0.81370549  0.52096607  0.66946653     0.84900
O1542       O  0.67930392  0.93904391  0.80663691    -0.77100
C1543       C  0.75555111  0.53684532  0.85962821     0.85100
C1544       C  0.83493690  0.92853777  0.78178934     0.85400
O1545       O  0.81499888  0.93645883  0.82404045    -0.79500
C1546       C  0.75163158  0.62648653  0.90613747     0.04600
C1547       C  0.77556974  0.62687209  0.95223384    -0.11600
C1548       C  0.79032228  0.59641918  0.97389366     0.02100
C1549       C  0.78214756  0.56593153  0.94599145    -0.10100
C1550       C  0.75819024  0.56561922  0.89988581     0.04600
C1551       C  0.74060741  0.59561107  0.88497564    -0.09500
H1552       H  0.78454705  0.65067646  0.96830720     0.10200
H1553       H  0.79573621  0.54278935  0.95810471     0.07700
H1554       H  0.72170802  0.59573138  0.85007396     0.07500
C1555       C  0.81727154  0.59633242  0.02096165     0.81700
N1556       N  0.83013504  0.56638833  0.54158141    -0.76600
C1557       C  0.85820165  0.56543115  0.57816421     0.84100
N1558       N  0.87274562  0.59458812  0.59484127    -0.76600
C1559       C  0.85828480  0.62471384  0.57983663     0.84200
N1560       N  0.83011163  0.62565566  0.54280849    -0.78300
N1561       N  0.61778705  0.65187634  0.63351319    -0.02000
C1562       C  0.60752395  0.65653472  0.57846323     0.00600
C1563       C  0.63653148  0.65445058  0.54176228    -0.22300
C1564       C  0.66631116  0.65190073  0.57466211    -0.22500
C1565       C  0.65434999  0.65238574  0.62998115     0.00500
H1566       H  0.63653617  0.65941625  0.49658424     0.14200
H1567       H  0.69364508  0.65518200  0.56012017     0.14300
N1568       N  0.86828100  0.79003177  0.86521917    -0.02000
C1569       C  0.88282476  0.78398176  0.91712379     0.00600
C1570       C  0.85707801  0.78406507  0.95905031    -0.22300
C1571       C  0.82491659  0.78821061  0.93245560    -0.22500
C1572       C  0.83216300  0.78920040  0.87475673     0.00500
H1573       H  0.86087836  0.77721031  0.00313971     0.14200
H1574       H  0.79905964  0.78447616  0.95243222     0.14300
O1575       O  0.52740891  0.67278882  0.89179779    -0.77000
C1576       C  0.56143069  0.77564920  0.91419427     0.84000
O1577       O  0.54984290  0.68287689  0.59495897    -0.78200
O1578       O  0.99050573  0.78983942  0.55542916    -0.79600
O1579       O  0.91708889  0.73412496  0.92871570    -0.79400
O1580       O  0.96905095  0.66192167  0.90284979    -0.78100
Zn1581     Zn  0.53932629  0.70553106  0.95311408     1.55700
O1582       O  0.94372317  0.78306627  0.94303996    -0.79500
Cd1583     Cd  0.95230859  0.69767896  0.96232810     1.59700
Cd1584     Cd  0.00217976  0.70935267  0.57613950     1.59600
O1585       O  0.92292061  0.67456116  0.52813877    -0.79400
O1586       O  0.49648187  0.71965798  0.99243301    -1.90000
Cd1587     Cd  0.49179973  0.76859328  0.97878554     1.59900
O1588       O  0.96006829  0.68081124  0.60119960    -0.79400
O1589       O  0.53303224  0.78957964  0.93333923    -0.78100
C1590       C  0.57402029  0.67364034  0.55970865     0.84500
C1591       C  0.49966487  0.65603399  0.87971168     0.84100
O1592       O  0.56750531  0.74428051  0.91999180    -0.77000
C1593       C  0.91700625  0.76617556  0.92729813     0.84900
O1594       O  0.57152556  0.68081420  0.50716108    -0.77100
C1595       C  0.93068016  0.67062094  0.58051552     0.85100
C1596       C  0.99190181  0.78255040  0.60784332     0.85400
O1597       O  0.99691667  0.75260526  0.62544574    -0.79500
C1598       C  0.50843940  0.56464693  0.85108194     0.04600
C1599       C  0.49360257  0.59552826  0.86853214    -0.11600
C1600       C  0.50498234  0.62568976  0.84499525     0.02100
C1601       C  0.52861238  0.62508822  0.79845575    -0.10100
C1602       C  0.54133781  0.59436871  0.77596999     0.04600
C1603       C  0.53154454  0.56412796  0.80354833    -0.09500
H1604       H  0.47653905  0.59663137  0.90581463     0.09400
H1605       H  0.53804279  0.64859655  0.78135068     0.07700
H1606       H  0.54311565  0.54042860  0.78983136     0.07500
C1607       C  0.56712796  0.59398933  0.72716303     0.81700
N1608       N  0.57898250  0.62338002  0.70338505    -0.76600
C1609       C  0.60441721  0.62236882  0.66163833     0.84100
N1610       N  0.61788399  0.59236450  0.64495548    -0.76600
C1611       C  0.60576427  0.56323443  0.66618364     0.84200
N1612       N  0.57973429  0.56397406  0.70660849    -0.78300
N1613       N  0.61526543  0.53322151  0.63614924    -0.02000
C1614       C  0.59978108  0.52997391  0.58463325     0.00600
C1615       C  0.62506867  0.02506053  0.54247025    -0.22300
C1616       C  0.65762214  0.02295845  0.56903730    -0.22500
C1617       C  0.65073266  0.52730176  0.62600995     0.00500
H1618       H  0.61995681  0.01894526  0.49857912     0.14200
H1619       H  0.68283692  0.01511534  0.54989292     0.14300
N1620       N  0.88916272  0.90978124  0.83837800    -0.02000
C1621       C  0.91762701  0.93060006  0.84457687     0.00600
C1622       C  0.92331351  0.95014289  0.79724443    -0.22300
C1623       C  0.89572136  0.94397680  0.76181193    -0.22500
C1624       C  0.87353896  0.92193033  0.78992803     0.00500
H1625       H  0.94396122  0.96858459  0.79100912     0.14200
H1626       H  0.88944307  0.95825788  0.72392119     0.14300
O1627       O  0.95644989  0.91023374  0.57566328    -0.77000
C1628       C  0.92640722  0.51453747  0.57976558     0.84000
O1629       O  0.97477559  0.93744146  0.88266905    -0.78200
O1630       O  0.48533405  0.53948321  0.93434000    -0.79600
O1631       O  0.55244454  0.99344367  0.60429183    -0.79400
O1632       O  0.51009052  0.91780657  0.61543985    -0.78100
Zn1633     Zn  0.95043365  0.94965278  0.51962837     1.55700
O1634       O  0.54468128  0.53118389  0.53583267    -0.79500
Cd1635     Cd  0.53109449  0.95320694  0.56160193     1.59700
Cd1636     Cd  0.51498538  0.96125953  0.92515781     1.59600
O1637       O  0.57468994  0.93279186  0.02017347    -0.79400
O1638       O  0.99643457  0.96830526  0.00352116    -1.90000
Cd1639     Cd  0.99427690  0.51700748  0.51107447     1.59900
O1640       O  0.56496019  0.93619038  0.92661597    -0.79400
O1641       O  0.95495341  0.53027033  0.56812905    -0.78100
C1642       C  0.94154328  0.93311983  0.89372327     0.84500
C1643       C  0.98069070  0.90216685  0.61192654     0.84100
O1644       O  0.92019512  0.98534998  0.56031150    -0.77000
C1645       C  0.56300131  0.51886258  0.57650632     0.84900
O1646       O  0.92822067  0.93638793  0.94355962    -0.77100
C1647       C  0.58512201  0.92917471  0.96899477     0.85100
C1648       C  0.50414732  0.53519266  0.88971002     0.85400
O1649       O  0.52099345  0.50743607  0.88117649    -0.79500
C1650       C  0.93086880  0.83727056  0.77646463     0.81700
N1651       N  0.90954695  0.81152063  0.79334136    -0.76600
C1652       C  0.88323047  0.81743823  0.83306301     0.84100
N1653       N  0.87608125  0.84981653  0.85011947    -0.76600
C1654       C  0.89916519  0.87465491  0.83600608     0.84200
N1655       N  0.92807458  0.86670662  0.80386482    -0.78300
C1656       C  0.98579110  0.81084347  0.64648597     0.04600
C1657       C  0.96541879  0.80824027  0.69677293    -0.11600
C1658       C  0.95151846  0.83759662  0.72237449     0.02100
C1659       C  0.95649341  0.86897013  0.69470186    -0.10100
C1660       C  0.97710544  0.87118282  0.64536136     0.04600
C1661       C  0.99349270  0.84253636  0.62415362    -0.09500
H1662       H  0.95928729  0.78385593  0.71429759     0.10200
H1663       H  0.94413647  0.89174495  0.71097098     0.07700
H1664       H  0.50949251  0.84471576  0.58579110     0.07500
loop_ 
_geom_bond_atom_site_label_1 
_geom_bond_atom_site_label_2 
_geom_bond_distance 
_geom_bond_site_symmetry_2 
_ccdc_geom_bond_type 
N1            C5   1.363       .  A
N1            C2   1.358       .  A
N1           C42   1.445       .  S
C2            C3   1.383       .  A
C2           C30   1.480       .  S
C3            C4   1.361       .  A
C3            H6   1.083       .  S
C4            C5   1.380       .  A
C4            H7   1.083       .  S
C5          C120   1.467       .  S
N8           C12   1.367       .  A
N8            C9   1.367       .  A
N8          C103   1.446       .  S
C9           C10   1.378       .  A
C9           C33   1.468       .  S
C10          C11   1.356       .  A
C10          H13   1.083       .  S
C11          C12   1.383       .  A
C11          H14   1.083       .  S
C12         C139   1.481       .  S
O15          C31   1.267       .  A
O15         Zn21   1.972       .  S
C16         C109   1.457       .  S
C16          O32   1.267       .  A
C16          O29   1.271       .  A
O17          C30   1.279       .  A
O17         Cd24   2.121       .  S
O18          C36   1.274       .  A
O18         Cd27   2.026       .  S
O19          C33   1.278       .  A
O19         Cd23   2.085       .  S
O20          C31   1.274       .  A
O20         Cd23   2.058       .  S
Zn21         O32   1.990       .  S
Zn21         O34   1.968       .  S
Zn21         O26   1.912       .  S
O22          C33   1.272       .  A
O22         Cd27   2.070       .  S
Cd23         O25   2.100       .  S
Cd23         O26   2.005       .  S
Cd24         O28   2.062       .  S
Cd24         O37   2.129       .  S
Cd24         O26   2.022       .  S
O25          C35   1.277       .  A
O26         Cd27   1.980       .  S
Cd27         O29   2.066       .  S
O28          C35   1.278       .  A
C30          O34   1.269       .  A
C31          C48   1.453       .  S
C35         C116   1.483       .  S
C36          C90   1.484       .  S
C36          O37   1.281       .  A
C38         N247   1.344       .  A
C38         N251   1.368       .  A
C38          C46   1.487   1_556  S
N39          C40   1.349       .  A
N39         C246   1.344       .  A
C40          N41   1.358       .  A
C40          N53   1.440       .  S
N41          C42   1.373       .  A
C42          N43   1.371       .  A
N43         C246   1.368       .  A
C44          C45   1.400       .  A
C44          C49   1.388       .  A
C44          C68   1.473       .  S
C45          C46   1.423       .  A
C45          H50   1.083       .  S
C46          C47   1.402       .  A
C47          C48   1.406       .  A
C47          H51   1.084       .  S
C48          C49   1.398       .  A
C49          H52   1.086       .  S
N53          C57   1.364       .  A
N53          C54   1.363       .  A
C54          C55   1.377       .  A
C54          C82   1.466       .  S
C55          C56   1.356       .  A
C55          H58   1.083       .  S
C56          C57   1.382       .  A
C56          H59   1.080       .  S
C57         C191   1.470       .  S
N60          C64   1.356       .  A
N60          C61   1.354       .  A
N60         C101   1.436       .  S
C61         C478   1.382       .  A
C61          C85   1.461       .  S
C62          C63   1.366       .  A
C62         C477   1.382       .  A
C62          H65   1.083       .  S
C63         C480   1.377       .  A
C63          H66   1.083       .  S
C64         C479   1.377       .  A
C64         C172   1.460       .  S
O67         C499   1.277       .  A
O67         Zn73   2.034       .  S
C68          O84   1.281       .  A
C68          O81   1.273       .  A
O69          C82   1.277       .  A
O69         Cd76   2.048       .  S
O70          C88   1.275       .  A
O70         Cd79   2.049       .  S
O71          C85   1.271       .  A
O71         Cd75   2.059       .  S
O72          C83   1.275       .  A
O72         Cd75   2.065       .  S
Zn73         O84   2.061       .  S
Zn73         O86   2.041       .  S
Zn73         O78   1.919       .  S
O74         C501   1.274       .  A
O74         Cd79   2.075       .  S
Cd75         O77   2.055       .  S
Cd75        O494   1.960   1_545  S
Cd76         O89   2.099       .  S
Cd76        O496   2.122       .  S
Cd76         O78   1.998       .  S
O77          C87   1.277       .  A
O78         Cd79   1.972       .  S
O78        Cd491   1.960       .  S
Cd79         O81   2.063       .  S
O80          C87   1.279       .  A
O80        Cd492   2.122   1_545  S
C82          O86   1.279       .  A
C83         C161   1.463       .  S
C83         O483   1.277   1_545  A
C85         O490   1.274   1_545  A
C87          C94   1.498       .  S
C88         C168   1.470       .  S
C88          O89   1.279       .  A
C90          C91   1.408       .  A
C90          C95   1.400       .  A
C91          C92   1.418       .  A
C91          H96   1.083       .  S
C92          C93   1.424       .  A
C92          C99   1.498       .  S
C93          C94   1.408       .  A
C93          H97   1.083       .  S
C94          C95   1.398       .  A
C95          H98   1.084       .  S
C99         N308   1.367       .  A
C99         N312   1.375       .  A
N100        C101   1.357       .  A
N100        C307   1.367       .  A
C101        N102   1.352       .  A
N102        C103   1.354       .  A
C103        N104   1.367       .  A
N104        C307   1.375       .  A
N105        C109   1.364       .  A
N105        C106   1.365       .  A
N105        C153   1.444       .  S
C106        C107   1.384       .  A
C106        C134   1.479       .  S
C107        C108   1.357       .  A
C107        H110   1.083   1_554  S
C108        C109   1.378       .  A
C108        H111   1.083       .  S
N112        C116   1.364       .  A
N112        C113   1.359       .  A
N112        C196   1.447       .  S
C113        C114   1.375       .  A
C113        C137   1.466       .  S
C114        C115   1.360       .  A
C114        H117   1.083       .  S
C115        C116   1.387       .  A
C115        H118   1.083       .  S
O119        C135   1.274   1_455  A
O119       Zn125   2.009       .  S
C120        O136   1.275       .  A
C120        O133   1.269       .  A
O121        C134   1.275       .  A
O121       Cd960   2.097       .  S
O122        C140   1.270       .  A
O122      Cd1171   2.000   1_554  S
O123        C137   1.279       .  A
O123       Cd127   2.095       .  S
O124        C967   1.281       .  A
O124       Cd127   2.091       .  S
Zn125       O136   2.036       .  S
Zn125       O346   1.997       .  S
Zn125       O130   1.920   1_455  S
O126        C137   1.269       .  A
O126       Cd963   2.053       .  S
Cd127       O337   2.114       .  S
Cd127       O962   2.010       .  S
Cd128       O132   2.039       .  S
Cd128       O141   2.092       .  S
Cd128       O953   2.097       .  S
Cd128      O1170   2.026   1_554  S
O129        C139   1.278       .  A
O129       Cd335   2.114   1_554  S
O130       Cd131   1.982       .  S
O130       Cd959   2.010       .  S
O130      Cd1168   2.026   1_655  S
Cd131       O133   2.058   1_655  S
Cd131      O1162   2.000       .  S
Cd131       O958   2.053       .  S
O132        C139   1.273       .  A
C134        O138   1.274       .  A
C135        C144   1.475   1_655  S
C135        O956   1.281       .  A
O138       Zn333   1.997   1_554  S
C140        C200   1.468       .  S
C140        O141   1.274       .  A
C142        C143   1.404   1_455  A
C142        C147   1.411       .  A
C142        C192   1.494       .  S
C143        C144   1.395   1_655  A
C143        H148   1.084       .  S
C144        C145   1.405       .  A
C145        C146   1.412       .  A
C145        H149   1.083       .  S
C146        C147   1.421       .  A
C146        C151   1.497       .  S
C147        H150   1.083       .  S
C151        N152   1.377       .  A
C151        N156   1.369       .  A
N152        C153   1.365       .  A
C153        N154   1.350       .  A
N154        C155   1.348       .  A
C155        N156   1.358       .  A
C155        N157   1.433       .  S
N157        C161   1.358       .  A
N157        C158   1.354       .  A
C158        C575   1.380       .  A
C158        C189   1.460       .  S
C159        C160   1.367       .  A
C159        C574   1.380       .  A
C159        H162   1.083   1_554  S
C160        C577   1.378       .  A
C160        H163   1.083       .  S
C161        C576   1.378       .  A
N164        C168   1.367       .  A
N164        C165   1.367       .  A
N164        C198   1.445       .  S
C165        C166   1.377       .  A
C165        C186   1.468       .  S
C166        C167   1.353       .  A
C166        H169   1.083       .  S
C167        C168   1.383       .  A
C167        H170   1.081       .  S
O171        C187   1.281       .  A
O171       Zn177   2.059       .  S
C172        O185   1.273       .  A
C172        O604   1.279   1_545  A
O173        C186   1.278       .  A
O173      Cd1012   2.053       .  S
O174        C192   1.273   1_655  A
O174      Cd1223   2.042       .  S
O175        C605   1.273       .  A
O175       Cd179   2.071       .  S
O176       C1019   1.273   1_455  A
O176       Cd179   2.058       .  S
Zn177       O188   2.041       .  S
Zn177       O398   2.053   1_554  S
Zn177       O390   1.916       .  S
O178        C189   1.271       .  A
O178      Cd1015   2.056   1_455  S
Cd179       O389   2.051       .  S
Cd179      O1222   1.969   1_455  S
Cd180       O184   2.097       .  S
Cd180      O1005   2.053   1_455  S
Cd180       O609   2.125       .  S
Cd180      O1014   1.991   1_455  S
O181        C191   1.275       .  A
O181       Cd387   2.051       .  S
O182       Zn385   1.916       .  S
O182      Cd1219   1.969       .  S
O182      Cd1012   1.991       .  S
O182       Cd807   1.953       .  S
Cd183       O185   2.050       .  S
Cd183      O1214   2.042   1_554  S
Cd183      O1010   2.056       .  S
Cd183       O806   1.953   1_545  S
O184        C191   1.279       .  A
C186        O190   1.281       .  A
C187        C204   1.471       .  S
C187       O1008   1.273       .  A
O188        C588   1.279       .  A
C189        O591   1.273   1_545  A
O190       Zn385   2.053       .  S
C192        O193   1.280       .  A
O193       Cd596   2.125   1_545  S
C194        N195   1.367       .  A
C194        N199   1.345       .  A
C194        C202   1.488       .  S
N195        C196   1.372       .  A
C196        N197   1.376       .  A
N197        C198   1.363       .  A
C198        N199   1.349       .  A
C200        C201   1.411       .  A
C200        C205   1.402       .  A
C201        C202   1.410       .  A
C201        H206   1.083       .  S
C202        C203   1.424       .  A
C203        C204   1.396       .  A
C203        H207   1.083       .  S
C204        C205   1.381       .  A
C205       H1040   1.086       .  S
H208       C1037   1.086   1_455  S
N209        C213   1.363       .  A
N209        C210   1.358       .  A
N209        C250   1.445       .  S
C210        C211   1.383       .  A
C210        C238   1.480       .  S
C211        C212   1.361       .  A
C211        H214   1.083       .  S
C212        C213   1.380       .  A
C212        H215   1.083       .  S
C213        C328   1.467       .  S
N216        C220   1.367       .  A
N216        C217   1.367       .  A
N216        C311   1.446       .  S
C217        C218   1.378       .  A
C217        C241   1.468       .  S
C218        C219   1.356       .  A
C218        H221   1.083       .  S
C219        C220   1.383       .  A
C219        H222   1.083       .  S
C220        C347   1.481       .  S
O223        C239   1.267       .  A
O223       Zn229   1.972       .  S
C224        C317   1.457       .  S
C224        O240   1.267       .  A
C224        O237   1.271       .  A
O225        C238   1.279       .  A
O225       Cd232   2.121       .  S
O226        C244   1.274       .  A
O226       Cd235   2.026       .  S
O227        C241   1.278       .  A
O227       Cd231   2.085       .  S
O228        C239   1.274       .  A
O228       Cd231   2.058       .  S
Zn229       O240   1.990       .  S
Zn229       O242   1.968       .  S
Zn229       O234   1.912       .  S
O230        C241   1.272       .  A
O230       Cd235   2.070       .  S
Cd231       O233   2.100       .  S
Cd231       O234   2.005       .  S
Cd232       O236   2.062       .  S
Cd232       O245   2.129       .  S
Cd232       O234   2.022       .  S
O233        C243   1.277       .  A
O234       Cd235   1.980       .  S
Cd235       O237   2.066       .  S
O236        C243   1.278       .  A
C238        O242   1.269       .  A
C239        C256   1.453       .  S
C243        C324   1.483       .  S
C244        C298   1.484       .  S
C244        O245   1.281       .  A
C246        C254   1.487       .  S
N247        C248   1.349       .  A
C248        N249   1.358       .  A
C248        N261   1.440       .  S
N249        C250   1.373       .  A
C250        N251   1.371       .  A
C252        C253   1.400       .  A
C252        C257   1.388       .  A
C252        C276   1.473       .  S
C253        C254   1.423       .  A
C253        H258   1.083       .  S
C254        C255   1.402       .  A
C255        C256   1.406       .  A
C255        H259   1.084       .  S
C256        C257   1.398       .  A
C257        H260   1.086       .  S
N261        C265   1.364       .  A
N261        C262   1.363       .  A
C262        C263   1.377       .  A
C262        C290   1.466       .  S
C263        C264   1.356       .  A
C263        H266   1.083       .  S
C264        C265   1.382       .  A
C264        H267   1.080   1_556  S
C265        C399   1.470       .  S
N268        C272   1.356       .  A
N268        C269   1.354       .  A
N268        C309   1.436       .  S
C269        C686   1.382       .  A
C269        C293   1.461       .  S
C270        C685   1.382       .  A
C270        C271   1.366       .  A
C270        H273   1.083       .  S
C271        C688   1.377       .  A
C271        H274   1.083       .  S
C272        C687   1.377       .  A
C272        C380   1.460       .  S
O275        C707   1.277       .  A
O275       Zn281   2.034       .  S
C276        O292   1.281       .  A
C276        O289   1.273       .  A
O277        C290   1.277       .  A
O277       Cd284   2.048       .  S
O278        C296   1.275       .  A
O278       Cd287   2.049       .  S
O279        C293   1.271       .  A
O279       Cd283   2.059       .  S
O280        C291   1.275       .  A
O280       Cd283   2.065       .  S
Zn281       O292   2.061       .  S
Zn281       O294   2.041       .  S
Zn281       O286   1.919       .  S
O282        C709   1.274       .  A
O282       Cd287   2.075       .  S
Cd283       O285   2.055       .  S
Cd283       O702   1.960   1_545  S
Cd284       O704   2.122       .  S
Cd284       O297   2.099       .  S
Cd284       O286   1.998       .  S
O285        C295   1.277       .  A
O286       Cd699   1.960       .  S
O286       Cd287   1.972       .  S
Cd287       O289   2.063       .  S
O288        C295   1.279       .  A
O288       Cd700   2.122   1_545  S
C290        O294   1.279       .  A
C291        C369   1.463       .  S
C291        O691   1.277   1_545  A
C293        O698   1.274   1_545  A
C295        C302   1.498       .  S
C296        C376   1.470       .  S
C296        O297   1.279       .  A
C298        C299   1.408       .  A
C298        C303   1.400       .  A
C299        C300   1.418       .  A
C299        H304   1.083       .  S
C300        C301   1.424       .  A
C300        C307   1.498   1_556  S
C301        C302   1.408       .  A
C301        H305   1.083       .  S
C302        C303   1.398       .  A
C303        H306   1.084       .  S
N308        C309   1.357       .  A
C309        N310   1.352       .  A
N310        C311   1.354       .  A
C311        N312   1.367       .  A
N313        C317   1.364       .  A
N313        C314   1.365       .  A
N313        C361   1.444       .  S
C314        C315   1.384       .  A
C314        C342   1.479       .  S
C315        C316   1.357       .  A
C315        H318   1.083       .  S
C316        C317   1.378       .  A
C316        H319   1.083       .  S
N320        C324   1.364       .  A
N320        C321   1.359       .  A
N320        C404   1.447       .  S
C321        C322   1.375       .  A
C321        C345   1.466       .  S
C322        C323   1.360       .  A
C322        H325   1.083   1_556  S
C323        C324   1.387       .  A
C323        H326   1.083       .  S
O327        C343   1.274   1_455  A
O327       Zn333   2.009       .  S
C328        O344   1.275       .  A
C328        O341   1.269       .  A
O329        C342   1.275       .  A
O329      Cd1168   2.097       .  S
O330        C348   1.270       .  A
O330       Cd963   2.000       .  S
O331        C345   1.279       .  A
O331       Cd335   2.095       .  S
O332       C1175   1.281       .  A
O332       Cd335   2.091       .  S
Zn333       O344   2.036       .  S
Zn333       O338   1.920   1_455  S
O334        C345   1.269       .  A
O334      Cd1171   2.053       .  S
Cd335      O1170   2.010       .  S
Cd336      O1161   2.097       .  S
Cd336       O340   2.039       .  S
Cd336       O349   2.092       .  S
Cd336       O962   2.026       .  S
O337        C347   1.278       .  A
O338      Cd1167   2.010       .  S
O338       Cd960   2.026   1_656  S
O338       Cd339   1.982       .  S
Cd339       O954   2.000   1_556  S
Cd339      O1166   2.053       .  S
Cd339       O341   2.058   1_655  S
O340        C347   1.273       .  A
C342        O346   1.274       .  A
C343        C352   1.475   1_655  S
C343       O1164   1.281       .  A
C348        C408   1.468       .  S
C348        O349   1.274       .  A
C350        C351   1.404   1_455  A
C350        C355   1.411       .  A
C350        C400   1.494       .  S
C351        C352   1.395   1_655  A
C351        H356   1.084       .  S
C352        C353   1.405       .  A
C353        C354   1.412       .  A
C353        H357   1.083       .  S
C354        C355   1.421       .  A
C354        C359   1.497       .  S
C355        H358   1.083       .  S
C359        N360   1.377       .  A
C359        N364   1.369       .  A
N360        C361   1.365       .  A
C361        N362   1.350       .  A
N362        C363   1.348       .  A
C363        N364   1.358       .  A
C363        N365   1.433       .  S
N365        C369   1.358       .  A
N365        C366   1.354       .  A
C366        C783   1.380       .  A
C366        C397   1.460       .  S
C367        C782   1.380       .  A
C367        C368   1.367       .  A
C367        H370   1.083       .  S
C368        C785   1.378       .  A
C368        H371   1.083       .  S
C369        C784   1.378       .  A
N372        C376   1.367       .  A
N372        C373   1.367       .  A
N372        C406   1.445       .  S
C373        C374   1.377       .  A
C373        C394   1.468       .  S
C374        C375   1.353       .  A
C374        H377   1.083       .  S
C375        C376   1.383       .  A
C375        H378   1.081       .  S
O379        C395   1.281       .  A
O379       Zn385   2.059       .  S
C380        O812   1.279   1_545  A
C380        O393   1.273       .  A
O381        C394   1.278       .  A
O381      Cd1220   2.053       .  S
O382        C400   1.273   1_655  A
O382      Cd1015   2.042   1_556  S
O383        C813   1.273       .  A
O383       Cd387   2.071       .  S
O384       C1227   1.273   1_455  A
O384       Cd387   2.058       .  S
Zn385       O396   2.041       .  S
O386        C397   1.271       .  A
O386      Cd1223   2.056   1_455  S
Cd387      O1014   1.969   1_455  S
Cd388      O1213   2.053   1_455  S
Cd388       O392   2.097       .  S
Cd388       O817   2.125       .  S
Cd388      O1222   1.991   1_456  S
O389        C399   1.275   1_554  A
O390      Cd1011   1.969       .  S
O390      Cd1220   1.991   1_554  S
O390       Cd599   1.953       .  S
Cd391      O1006   2.042       .  S
Cd391      O1218   2.056       .  S
Cd391       O393   2.050       .  S
Cd391       O598   1.953   1_545  S
O392        C399   1.279       .  A
C394        O398   1.281       .  A
C395        C412   1.471       .  S
C395       O1216   1.273       .  A
O396        C796   1.279       .  A
C397        O799   1.273   1_545  A
C400        O401   1.280       .  A
O401       Cd804   2.125   1_545  S
C402        N403   1.367       .  A
C402        N407   1.345       .  A
C402        C410   1.488       .  S
N403        C404   1.372       .  A
C404        N405   1.376       .  A
N405        C406   1.363       .  A
C406        N407   1.349       .  A
C408        C409   1.411       .  A
C408        C413   1.402       .  A
C409        C410   1.410       .  A
C409        H414   1.083       .  S
C410        C411   1.424       .  A
C411        C412   1.396       .  A
C411        H415   1.083       .  S
C412        C413   1.381       .  A
C413       H1248   1.086       .  S
H416       C1245   1.086   1_455  S
N417        C421   1.363       .  A
N417        C418   1.358       .  A
N417        C458   1.445       .  S
C418        C419   1.383       .  A
C418        C446   1.480       .  S
C419        C420   1.361       .  A
C419        H422   1.083       .  S
C420        C421   1.380       .  A
C420        H423   1.083       .  S
C421        C536   1.467       .  S
N424        C428   1.367       .  A
N424        C425   1.367       .  A
N424        C519   1.446       .  S
C425        C426   1.378       .  A
C425        C449   1.468       .  S
C426        C427   1.356       .  A
C426        H429   1.083       .  S
C427        C428   1.383       .  A
C427        H430   1.083       .  S
C428        C555   1.481       .  S
O431        C447   1.267       .  A
O431       Zn437   1.972       .  S
C432        C525   1.457       .  S
C432        O448   1.267       .  A
C432        O445   1.271       .  A
O433        C446   1.279       .  A
O433       Cd440   2.121       .  S
O434        C452   1.274       .  A
O434       Cd443   2.026       .  S
O435        C449   1.278       .  A
O435       Cd439   2.085       .  S
O436        C447   1.274       .  A
O436       Cd439   2.058       .  S
Zn437       O448   1.990       .  S
Zn437       O450   1.968       .  S
Zn437       O442   1.912       .  S
O438        C449   1.272       .  A
O438       Cd443   2.070       .  S
Cd439       O441   2.100       .  S
Cd439       O442   2.005       .  S
Cd440       O444   2.062       .  S
Cd440       O453   2.129       .  S
Cd440       O442   2.022       .  S
O441        C451   1.277       .  A
O442       Cd443   1.980       .  S
Cd443       O445   2.066       .  S
O444        C451   1.278       .  A
C446        O450   1.269       .  A
C447        C464   1.453       .  S
C451        C532   1.483       .  S
C452        C506   1.484       .  S
C452        O453   1.281       .  A
C454        N663   1.344       .  A
C454        N667   1.368       .  A
C454        C462   1.487   1_556  S
N455        C662   1.344       .  A
N455        C456   1.349       .  A
C456        N457   1.358       .  A
C456        N469   1.440       .  S
N457        C458   1.373       .  A
C458        N459   1.371       .  A
N459        C662   1.368       .  A
C460        C461   1.400       .  A
C460        C465   1.388       .  A
C460        C484   1.473       .  S
C461        C462   1.423       .  A
C461        H466   1.083       .  S
C462        C463   1.402       .  A
C463        C464   1.406       .  A
C463        H467   1.084       .  S
C464        C465   1.398       .  A
C465        H468   1.086       .  S
N469        C473   1.364       .  A
N469        C470   1.363       .  A
C470        C471   1.377       .  A
C470        C498   1.466       .  S
C471        C472   1.356       .  A
C471        H474   1.083       .  S
C472        C473   1.382       .  A
C472        H475   1.080       .  S
C473        C607   1.470       .  S
N476        C480   1.356       .  A
N476        C477   1.354       .  A
N476        C517   1.436       .  S
C477        C501   1.461       .  S
C478        C479   1.366       .  A
C478        H481   1.083       .  S
C479        H482   1.083       .  S
C480        C588   1.460       .  S
O483       Zn489   2.034       .  S
C484        O500   1.281       .  A
C484        O497   1.273       .  A
O485        C498   1.277       .  A
O485       Cd492   2.048       .  S
O486        C504   1.275       .  A
O486       Cd495   2.049       .  S
O487        C501   1.271       .  A
O487       Cd491   2.059       .  S
O488        C499   1.275       .  A
O488       Cd491   2.065       .  S
Zn489       O500   2.061       .  S
Zn489       O502   2.041       .  S
Zn489       O494   1.919       .  S
O490       Cd495   2.075       .  S
Cd491       O493   2.055       .  S
Cd492       O505   2.099       .  S
Cd492       O494   1.998       .  S
O493        C503   1.277       .  A
O494       Cd495   1.972       .  S
Cd495       O497   2.063       .  S
O496        C503   1.279       .  A
C498        O502   1.279       .  A
C499        C577   1.463       .  S
C503        C510   1.498       .  S
C504        C584   1.470       .  S
C504        O505   1.279       .  A
C506        C507   1.408       .  A
C506        C511   1.400       .  A
C507        C508   1.418       .  A
C507        H512   1.083       .  S
C508        C509   1.424       .  A
C508        C515   1.498       .  S
C509        C510   1.408       .  A
C509        H513   1.083       .  S
C510        C511   1.398       .  A
C511        H514   1.084       .  S
C515        N724   1.367       .  A
C515        N728   1.375       .  A
N516        C723   1.367       .  A
N516        C517   1.357       .  A
C517        N518   1.352       .  A
N518        C519   1.354       .  A
C519        N520   1.367       .  A
N520        C723   1.375       .  A
N521        C525   1.364       .  A
N521        C522   1.365       .  A
N521        C569   1.444       .  S
C522        C523   1.384       .  A
C522        C550   1.479       .  S
C523        C524   1.357       .  A
C523        H526   1.083   1_554  S
C524        C525   1.378       .  A
C524        H527   1.083       .  S
N528        C532   1.364       .  A
N528        C529   1.359       .  A
N528        C612   1.447       .  S
C529        C530   1.375       .  A
C529        C553   1.466       .  S
C530        C531   1.360       .  A
C530        H533   1.083       .  S
C531        C532   1.387       .  A
C531        H534   1.083       .  S
O535        C551   1.274   1_455  A
O535       Zn541   2.009       .  S
C536        O552   1.275       .  A
C536        O549   1.269       .  A
O537        C550   1.275       .  A
O537      Cd1376   2.097       .  S
O538        C556   1.270       .  A
O538      Cd1587   2.000   1_554  S
O539        C553   1.279       .  A
O539       Cd543   2.095       .  S
O540       C1383   1.281       .  A
O540       Cd543   2.091       .  S
Zn541       O552   2.036       .  S
Zn541       O762   1.997       .  S
Zn541       O546   1.920   1_455  S
O542        C553   1.269       .  A
O542      Cd1379   2.053       .  S
Cd543       O753   2.114       .  S
Cd543      O1378   2.010       .  S
Cd544      O1369   2.097       .  S
Cd544       O548   2.039       .  S
Cd544       O557   2.092       .  S
Cd544      O1586   2.026   1_554  S
O545        C555   1.278       .  A
O545       Cd751   2.114   1_554  S
O546      Cd1375   2.010       .  S
O546      Cd1584   2.026   1_655  S
O546       Cd547   1.982       .  S
Cd547      O1578   2.000       .  S
Cd547      O1374   2.053       .  S
Cd547       O549   2.058   1_655  S
O548        C555   1.273       .  A
C550        O554   1.274       .  A
C551        C560   1.475   1_655  S
C551       O1372   1.281       .  A
O554       Zn749   1.997   1_554  S
C556        C616   1.468       .  S
C556        O557   1.274       .  A
C558        C559   1.404   1_455  A
C558        C563   1.411       .  A
C558        C608   1.494       .  S
C559        C560   1.395   1_655  A
C559        H564   1.084       .  S
C560        C561   1.405       .  A
C561        C562   1.412       .  A
C561        H565   1.083       .  S
C562        C563   1.421       .  A
C562        C567   1.497       .  S
C563        H566   1.083       .  S
C567        N568   1.377       .  A
C567        N572   1.369       .  A
N568        C569   1.365       .  A
C569        N570   1.350       .  A
N570        C571   1.348       .  A
C571        N572   1.358       .  A
C571        N573   1.433       .  S
N573        C577   1.358       .  A
N573        C574   1.354       .  A
C574        C605   1.460       .  S
C575        C576   1.367       .  A
C575        H578   1.083   1_554  S
C576        H579   1.083       .  S
N580        C584   1.367       .  A
N580        C581   1.367       .  A
N580        C614   1.445       .  S
C581        C582   1.377       .  A
C581        C602   1.468       .  S
C582        C583   1.353       .  A
C582        H585   1.083       .  S
C583        C584   1.383       .  A
C583        H586   1.081       .  S
O587        C603   1.281       .  A
O587       Zn593   2.059       .  S
C588        O601   1.273       .  A
O589        C602   1.278       .  A
O589      Cd1428   2.053       .  S
O590        C608   1.273   1_655  A
O590      Cd1639   2.042       .  S
O591       Cd595   2.071       .  S
O592       C1435   1.273   1_455  A
O592       Cd595   2.058       .  S
Zn593       O604   2.041       .  S
Zn593       O814   2.053   1_554  S
Zn593       O806   1.916       .  S
O594        C605   1.271       .  A
O594      Cd1431   2.056   1_455  S
Cd595       O805   2.051       .  S
Cd595      O1638   1.969   1_455  S
Cd596      O1421   2.053   1_455  S
Cd596       O600   2.097       .  S
Cd596      O1430   1.991   1_455  S
O597        C607   1.275       .  A
O597       Cd803   2.051       .  S
O598       Zn801   1.916       .  S
O598      Cd1635   1.969       .  S
O598      Cd1428   1.991       .  S
Cd599      O1630   2.042   1_554  S
Cd599      O1426   2.056       .  S
Cd599       O601   2.050       .  S
O600        C607   1.279       .  A
C602        O606   1.281       .  A
C603        C620   1.471       .  S
C603       O1424   1.273       .  A
O606       Zn801   2.053       .  S
C608        O609   1.280       .  A
C610        N611   1.367       .  A
C610        N615   1.345       .  A
C610        C618   1.488       .  S
N611        C612   1.372       .  A
C612        N613   1.376       .  A
N613        C614   1.363       .  A
C614        N615   1.349       .  A
C616        C617   1.411       .  A
C616        C621   1.402       .  A
C617        C618   1.410       .  A
C617        H622   1.083       .  S
C618        C619   1.424       .  A
C619        C620   1.396       .  A
C619        H623   1.083       .  S
C620        C621   1.381       .  A
C621       H1456   1.086       .  S
H624       C1453   1.086   1_455  S
N625        C629   1.363       .  A
N625        C626   1.358       .  A
N625        C666   1.445       .  S
C626        C627   1.383       .  A
C626        C654   1.480       .  S
C627        C628   1.361       .  A
C627        H630   1.083       .  S
C628        C629   1.380       .  A
C628        H631   1.083       .  S
C629        C744   1.467       .  S
N632        C636   1.367       .  A
N632        C633   1.367       .  A
N632        C727   1.446       .  S
C633        C634   1.378       .  A
C633        C657   1.468       .  S
C634        C635   1.356       .  A
C634        H637   1.083       .  S
C635        C636   1.383       .  A
C635        H638   1.083       .  S
C636        C763   1.481       .  S
O639        C655   1.267       .  A
O639       Zn645   1.972       .  S
C640        C733   1.457       .  S
C640        O656   1.267       .  A
C640        O653   1.271       .  A
O641        C654   1.279       .  A
O641       Cd648   2.121       .  S
O642        C660   1.274       .  A
O642       Cd651   2.026       .  S
O643        C657   1.278       .  A
O643       Cd647   2.085       .  S
O644        C655   1.274       .  A
O644       Cd647   2.058       .  S
Zn645       O656   1.990       .  S
Zn645       O658   1.968       .  S
Zn645       O650   1.912       .  S
O646        C657   1.272       .  A
O646       Cd651   2.070       .  S
Cd647       O649   2.100       .  S
Cd647       O650   2.005       .  S
Cd648       O652   2.062       .  S
Cd648       O661   2.129       .  S
Cd648       O650   2.022       .  S
O649        C659   1.277       .  A
O650       Cd651   1.980       .  S
Cd651       O653   2.066       .  S
O652        C659   1.278       .  A
C654        O658   1.269       .  A
C655        C672   1.453       .  S
C659        C740   1.483       .  S
C660        C714   1.484       .  S
C660        O661   1.281       .  A
C662        C670   1.487       .  S
N663        C664   1.349       .  A
C664        N665   1.358       .  A
C664        N677   1.440       .  S
N665        C666   1.373       .  A
C666        N667   1.371       .  A
C668        C669   1.400       .  A
C668        C673   1.388       .  A
C668        C692   1.473       .  S
C669        C670   1.423       .  A
C669        H674   1.083       .  S
C670        C671   1.402       .  A
C671        C672   1.406       .  A
C671        H675   1.084       .  S
C672        C673   1.398       .  A
C673        H676   1.086       .  S
N677        C681   1.364       .  A
N677        C678   1.363       .  A
C678        C679   1.377       .  A
C678        C706   1.466       .  S
C679        C680   1.356       .  A
C679        H682   1.083       .  S
C680        C681   1.382       .  A
C680        H683   1.080   1_556  S
C681        C815   1.470       .  S
N684        C688   1.356       .  A
N684        C685   1.354       .  A
N684        C725   1.436       .  S
C685        C709   1.461       .  S
C686        C687   1.366       .  A
C686        H689   1.083       .  S
C687        H690   1.083       .  S
C688        C796   1.460       .  S
O691       Zn697   2.034       .  S
C692        O708   1.281       .  A
C692        O705   1.273       .  A
O693        C706   1.277       .  A
O693       Cd700   2.048       .  S
O694        C712   1.275       .  A
O694       Cd703   2.049       .  S
O695        C709   1.271       .  A
O695       Cd699   2.059       .  S
O696        C707   1.275       .  A
O696       Cd699   2.065       .  S
Zn697       O708   2.061       .  S
Zn697       O710   2.041       .  S
Zn697       O702   1.919       .  S
O698       Cd703   2.075       .  S
Cd699       O701   2.055       .  S
Cd700       O713   2.099       .  S
Cd700       O702   1.998       .  S
O701        C711   1.277       .  A
O702       Cd703   1.972       .  S
Cd703       O705   2.063       .  S
O704        C711   1.279       .  A
C706        O710   1.279       .  A
C707        C785   1.463       .  S
C711        C718   1.498       .  S
C712        C792   1.470       .  S
C712        O713   1.279       .  A
C714        C715   1.408       .  A
C714        C719   1.400       .  A
C715        C716   1.418       .  A
C715        H720   1.083       .  S
C716        C717   1.424       .  A
C716        C723   1.498   1_556  S
C717        C718   1.408       .  A
C717        H721   1.083       .  S
C718        C719   1.398       .  A
C719        H722   1.084       .  S
N724        C725   1.357       .  A
C725        N726   1.352       .  A
N726        C727   1.354       .  A
C727        N728   1.367       .  A
N729        C733   1.364       .  A
N729        C730   1.365       .  A
N729        C777   1.444       .  S
C730        C731   1.384       .  A
C730        C758   1.479       .  S
C731        C732   1.357       .  A
C731        H734   1.083       .  S
C732        C733   1.378       .  A
C732        H735   1.083       .  S
N736        C740   1.364       .  A
N736        C737   1.359       .  A
N736        C820   1.447       .  S
C737        C738   1.375       .  A
C737        C761   1.466       .  S
C738        C739   1.360       .  A
C738        H741   1.083   1_556  S
C739        C740   1.387       .  A
C739        H742   1.083       .  S
O743        C759   1.274   1_455  A
O743       Zn749   2.009       .  S
C744        O760   1.275       .  A
C744        O757   1.269       .  A
O745        C758   1.275       .  A
O745      Cd1584   2.097       .  S
O746        C764   1.270       .  A
O746      Cd1379   2.000       .  S
O747        C761   1.279       .  A
O747       Cd751   2.095       .  S
O748       C1591   1.281       .  A
O748       Cd751   2.091       .  S
Zn749       O760   2.036       .  S
Zn749       O754   1.920   1_455  S
O750        C761   1.269       .  A
O750      Cd1587   2.053       .  S
Cd751      O1586   2.010       .  S
Cd752      O1577   2.097       .  S
Cd752       O756   2.039       .  S
Cd752       O765   2.092       .  S
Cd752      O1378   2.026       .  S
O753        C763   1.278       .  A
O754      Cd1583   2.010       .  S
O754      Cd1376   2.026   1_656  S
O754       Cd755   1.982       .  S
Cd755      O1370   2.000   1_556  S
Cd755      O1582   2.053       .  S
Cd755       O757   2.058   1_655  S
O756        C763   1.273       .  A
C758        O762   1.274       .  A
C759        C768   1.475   1_655  S
C759       O1580   1.281       .  A
C764        C824   1.468       .  S
C764        O765   1.274       .  A
C766        C767   1.404   1_455  A
C766        C771   1.411       .  A
C766        C816   1.494       .  S
C767        C768   1.395   1_655  A
C767        H772   1.084       .  S
C768        C769   1.405       .  A
C769        C770   1.412       .  A
C769        H773   1.083       .  S
C770        C771   1.421       .  A
C770        C775   1.497       .  S
C771        H774   1.083       .  S
C775        N776   1.377       .  A
C775        N780   1.369       .  A
N776        C777   1.365       .  A
C777        N778   1.350       .  A
N778        C779   1.348       .  A
C779        N780   1.358       .  A
C779        N781   1.433       .  S
N781        C785   1.358       .  A
N781        C782   1.354       .  A
C782        C813   1.460       .  S
C783        C784   1.367       .  A
C783        H786   1.083       .  S
C784        H787   1.083       .  S
N788        C792   1.367       .  A
N788        C789   1.367       .  A
N788        C822   1.445       .  S
C789        C790   1.377       .  A
C789        C810   1.468       .  S
C790        C791   1.353       .  A
C790        H793   1.083       .  S
C791        C792   1.383       .  A
C791        H794   1.081       .  S
O795        C811   1.281       .  A
O795       Zn801   2.059       .  S
C796        O809   1.273       .  A
O797        C810   1.278       .  A
O797      Cd1636   2.053       .  S
O798        C816   1.273   1_655  A
O798      Cd1431   2.042   1_556  S
O799       Cd803   2.071       .  S
O800       C1643   1.273   1_455  A
O800       Cd803   2.058       .  S
Zn801       O812   2.041       .  S
O802        C813   1.271       .  A
O802      Cd1639   2.056   1_455  S
Cd803      O1430   1.969   1_455  S
Cd804      O1629   2.053   1_455  S
Cd804       O808   2.097       .  S
Cd804      O1638   1.991   1_456  S
O805        C815   1.275   1_554  A
O806      Cd1427   1.969       .  S
O806      Cd1636   1.991   1_554  S
Cd807      O1422   2.042       .  S
Cd807      O1634   2.056       .  S
Cd807       O809   2.050       .  S
O808        C815   1.279       .  A
C810        O814   1.281       .  A
C811        C828   1.471       .  S
C811       O1632   1.273       .  A
C816        O817   1.280       .  A
C818        N819   1.367       .  A
C818        N823   1.345       .  A
C818        C826   1.488       .  S
N819        C820   1.372       .  A
C820        N821   1.376       .  A
N821        C822   1.363       .  A
C822        N823   1.349       .  A
C824        C825   1.411       .  A
C824        C829   1.402       .  A
C825        C826   1.410       .  A
C825        H830   1.083       .  S
C826        C827   1.424       .  A
C827        C828   1.396       .  A
C827        H831   1.083       .  S
C828        C829   1.381       .  A
C829       H1664   1.086       .  S
H832       C1661   1.086   1_455  S
N833        C837   1.363       .  A
N833        C834   1.358       .  A
N833        C874   1.445       .  S
C834        C835   1.383       .  A
C834        C862   1.480       .  S
C835        C836   1.361       .  A
C835        H838   1.083       .  S
C836        C837   1.380       .  A
C836        H839   1.083       .  S
C837        C952   1.467       .  S
N840        C844   1.367       .  A
N840        C841   1.367       .  A
N840        C935   1.446       .  S
C841        C842   1.378       .  A
C841        C865   1.468       .  S
C842        C843   1.356       .  A
C842        H845   1.083       .  S
C843        C844   1.383       .  A
C843        H846   1.083       .  S
C844        C971   1.481       .  S
O847        C863   1.267       .  A
O847       Zn853   1.972       .  S
C848        C941   1.457       .  S
C848        O864   1.267       .  A
C848        O861   1.271       .  A
O849        C862   1.279       .  A
O849       Cd856   2.121       .  S
O850        C868   1.274       .  A
O850       Cd859   2.026       .  S
O851        C865   1.278       .  A
O851       Cd855   2.085       .  S
O852        C863   1.274       .  A
O852       Cd855   2.058       .  S
Zn853       O864   1.990       .  S
Zn853       O866   1.968       .  S
Zn853       O858   1.912       .  S
O854        C865   1.272       .  A
O854       Cd859   2.070       .  S
Cd855       O857   2.100       .  S
Cd855       O858   2.005       .  S
Cd856       O860   2.062       .  S
Cd856       O869   2.129       .  S
Cd856       O858   2.022       .  S
O857        C867   1.277       .  A
O858       Cd859   1.980       .  S
Cd859       O861   2.066       .  S
O860        C867   1.278       .  A
C862        O866   1.269       .  A
C863        C880   1.453       .  S
C867        C948   1.483       .  S
C868        C922   1.484       .  S
C868        O869   1.281       .  A
C870       N1079   1.344       .  A
C870       N1083   1.368       .  A
C870        C878   1.487   1_556  S
N871       C1078   1.344       .  A
N871        C872   1.349       .  A
C872        N873   1.358       .  A
C872        N885   1.440       .  S
N873        C874   1.373       .  A
C874        N875   1.371       .  A
N875       C1078   1.368       .  A
C876        C877   1.400       .  A
C876        C881   1.388       .  A
C876        C900   1.473       .  S
C877        C878   1.423       .  A
C877        H882   1.083       .  S
C878        C879   1.402       .  A
C879        C880   1.406       .  A
C879        H883   1.084       .  S
C880        C881   1.398       .  A
C881        H884   1.086       .  S
N885        C889   1.364       .  A
N885        C886   1.363       .  A
C886        C887   1.377       .  A
C886        C914   1.466       .  S
C887        C888   1.356       .  A
C887        H890   1.083       .  S
C888        C889   1.382       .  A
C888        H891   1.080       .  S
C889       C1023   1.470       .  S
N892        C896   1.356       .  A
N892        C893   1.354       .  A
N892        C933   1.436       .  S
C893       C1310   1.382       .  A
C893        C917   1.461       .  S
C894       C1309   1.382       .  A
C894        C895   1.366       .  A
C894        H897   1.083       .  S
C895       C1312   1.377       .  A
C895        H898   1.083       .  S
C896       C1311   1.377       .  A
C896       C1004   1.460       .  S
O899       C1331   1.277       .  A
O899       Zn905   2.034       .  S
C900        O916   1.281       .  A
C900        O913   1.273       .  A
O901        C914   1.277       .  A
O901       Cd908   2.048       .  S
O902        C920   1.275       .  A
O902       Cd911   2.049       .  S
O903        C917   1.271       .  A
O903       Cd907   2.059       .  S
O904        C915   1.275       .  A
O904       Cd907   2.065       .  S
Zn905       O916   2.061       .  S
Zn905       O918   2.041       .  S
Zn905       O910   1.919       .  S
O906       C1333   1.274       .  A
O906       Cd911   2.075       .  S
Cd907       O909   2.055       .  S
Cd907      O1326   1.960   1_545  S
Cd908      O1328   2.122       .  S
Cd908       O921   2.099       .  S
Cd908       O910   1.998       .  S
O909        C919   1.277       .  A
O910      Cd1323   1.960       .  S
O910       Cd911   1.972       .  S
Cd911       O913   2.063       .  S
O912        C919   1.279       .  A
O912      Cd1324   2.122   1_545  S
C914        O918   1.279       .  A
C915        C993   1.463       .  S
C915       O1315   1.277   1_545  A
C917       O1322   1.274   1_545  A
C919        C926   1.498       .  S
C920       C1000   1.470       .  S
C920        O921   1.279       .  A
C922        C923   1.408       .  A
C922        C927   1.400       .  A
C923        C924   1.418       .  A
C923        H928   1.083       .  S
C924        C925   1.424       .  A
C924        C931   1.498       .  S
C925        C926   1.408       .  A
C925        H929   1.083       .  S
C926        C927   1.398       .  A
C927        H930   1.084       .  S
C931       N1140   1.367       .  A
C931       N1144   1.375       .  A
N932       C1139   1.367       .  A
N932        C933   1.357       .  A
C933        N934   1.352       .  A
N934        C935   1.354       .  A
C935        N936   1.367       .  A
N936       C1139   1.375       .  A
N937        C941   1.364       .  A
N937        C938   1.365       .  A
N937        C985   1.444       .  S
C938        C939   1.384       .  A
C938        C966   1.479       .  S
C939        C940   1.357       .  A
C939        H942   1.083   1_554  S
C940        C941   1.378       .  A
C940        H943   1.083       .  S
N944        C948   1.364       .  A
N944        C945   1.359       .  A
N944       C1028   1.447       .  S
C945        C946   1.375       .  A
C945        C969   1.466       .  S
C946        C947   1.360       .  A
C946        H949   1.083       .  S
C947        C948   1.387       .  A
C947        H950   1.083       .  S
O951        C967   1.274       .  A
O951       Zn957   2.009       .  S
C952        O968   1.275       .  A
C952        O965   1.269       .  A
O953        C966   1.275       .  A
O954        C972   1.270       .  A
O955        C969   1.279       .  A
O955       Cd959   2.095       .  S
O956       Cd959   2.091       .  S
Zn957       O968   2.036       .  S
Zn957      O1178   1.997       .  S
Zn957       O962   1.920       .  S
O958        C969   1.269       .  A
Cd959      O1169   2.114       .  S
Cd960       O964   2.039   1_455  S
Cd960       O973   2.092   1_455  S
O961        C971   1.278       .  A
O961      Cd1167   2.114   1_554  S
O962       Cd963   1.982       .  S
Cd963       O965   2.058       .  S
O964        C971   1.273       .  A
C966        O970   1.274       .  A
C967        C976   1.475       .  S
O970      Zn1165   1.997   1_554  S
C972       C1032   1.468       .  S
C972        O973   1.274       .  A
C974        C975   1.404       .  A
C974        C979   1.411       .  A
C974       C1024   1.494       .  S
C975        C976   1.395       .  A
C975        H980   1.084       .  S
C976        C977   1.405       .  A
C977        C978   1.412       .  A
C977        H981   1.083       .  S
C978        C979   1.421       .  A
C978        C983   1.497       .  S
C979        H982   1.083       .  S
C983        N984   1.377       .  A
C983        N988   1.369       .  A
N984        C985   1.365       .  A
C985        N986   1.350       .  A
N986        C987   1.348       .  A
C987        N988   1.358       .  A
C987        N989   1.433       .  S
N989        C993   1.358       .  A
N989        C990   1.354       .  A
C990       C1407   1.380       .  A
C990       C1021   1.460       .  S
C991       C1406   1.380       .  A
C991        C992   1.367       .  A
C991        H994   1.083   1_554  S
C992       C1409   1.378       .  A
C992        H995   1.083       .  S
C993       C1408   1.378       .  A
N996       C1000   1.367       .  A
N996        C997   1.367       .  A
N996       C1030   1.445       .  S
C997        C998   1.377       .  A
C997       C1018   1.468       .  S
C998        C999   1.353       .  A
C998       H1001   1.083       .  S
C999       C1000   1.383       .  A
C999       H1002   1.081       .  S
O1003      C1019   1.281       .  A
O1003     Zn1009   2.059       .  S
C1004      O1436   1.279   1_545  A
C1004      O1017   1.273       .  A
O1005      C1018   1.278       .  A
O1006      C1024   1.273       .  A
O1007      C1437   1.273       .  A
O1007     Cd1011   2.071       .  S
O1008     Cd1011   2.058       .  S
Zn1009     O1020   2.041       .  S
Zn1009     O1230   2.053   1_554  S
Zn1009     O1222   1.916       .  S
O1010      C1021   1.271       .  A
Cd1011     O1221   2.051       .  S
Cd1012     O1016   2.097       .  S
Cd1012     O1441   2.125       .  S
O1013      C1023   1.275       .  A
O1013     Cd1219   2.051       .  S
O1014     Zn1217   1.916       .  S
O1014     Cd1639   1.953       .  S
Cd1015     O1017   2.050       .  S
Cd1015     O1638   1.953   1_545  S
O1016      C1023   1.279       .  A
C1018      O1022   1.281       .  A
C1019      C1036   1.471       .  S
O1020      C1420   1.279       .  A
C1021      O1423   1.273   1_545  A
O1022     Zn1217   2.053       .  S
C1024      O1025   1.280       .  A
O1025     Cd1428   2.125   1_545  S
C1026      N1027   1.367       .  A
C1026      N1031   1.345       .  A
C1026      C1034   1.488       .  S
N1027      C1028   1.372       .  A
C1028      N1029   1.376       .  A
N1029      C1030   1.363       .  A
C1030      N1031   1.349       .  A
C1032      C1033   1.411       .  A
C1032      C1037   1.402       .  A
C1033      C1034   1.410       .  A
C1033      H1038   1.083       .  S
C1034      C1035   1.424       .  A
C1035      C1036   1.396       .  A
C1035      H1039   1.083       .  S
C1036      C1037   1.381       .  A
N1041      C1045   1.363       .  A
N1041      C1042   1.358       .  A
N1041      C1082   1.445       .  S
C1042      C1043   1.383       .  A
C1042      C1070   1.480       .  S
C1043      C1044   1.361       .  A
C1043      H1046   1.083       .  S
C1044      C1045   1.380       .  A
C1044      H1047   1.083       .  S
C1045      C1160   1.467       .  S
N1048      C1052   1.367       .  A
N1048      C1049   1.367       .  A
N1048      C1143   1.446       .  S
C1049      C1050   1.378       .  A
C1049      C1073   1.468       .  S
C1050      C1051   1.356       .  A
C1050      H1053   1.083       .  S
C1051      C1052   1.383       .  A
C1051      H1054   1.083       .  S
C1052      C1179   1.481       .  S
O1055      C1071   1.267       .  A
O1055     Zn1061   1.972       .  S
C1056      C1149   1.457       .  S
C1056      O1072   1.267       .  A
C1056      O1069   1.271       .  A
O1057      C1070   1.279       .  A
O1057     Cd1064   2.121       .  S
O1058      C1076   1.274       .  A
O1058     Cd1067   2.026       .  S
O1059      C1073   1.278       .  A
O1059     Cd1063   2.085       .  S
O1060      C1071   1.274       .  A
O1060     Cd1063   2.058       .  S
Zn1061     O1072   1.990       .  S
Zn1061     O1074   1.968       .  S
Zn1061     O1066   1.912       .  S
O1062      C1073   1.272       .  A
O1062     Cd1067   2.070       .  S
Cd1063     O1065   2.100       .  S
Cd1063     O1066   2.005       .  S
Cd1064     O1068   2.062       .  S
Cd1064     O1077   2.129       .  S
Cd1064     O1066   2.022       .  S
O1065      C1075   1.277       .  A
O1066     Cd1067   1.980       .  S
Cd1067     O1069   2.066       .  S
O1068      C1075   1.278       .  A
C1070      O1074   1.269       .  A
C1071      C1088   1.453       .  S
C1075      C1156   1.483       .  S
C1076      C1130   1.484       .  S
C1076      O1077   1.281       .  A
C1078      C1086   1.487       .  S
N1079      C1080   1.349       .  A
C1080      N1081   1.358       .  A
C1080      N1093   1.440       .  S
N1081      C1082   1.373       .  A
C1082      N1083   1.371       .  A
C1084      C1085   1.400       .  A
C1084      C1089   1.388       .  A
C1084      C1108   1.473       .  S
C1085      C1086   1.423       .  A
C1085      H1090   1.083       .  S
C1086      C1087   1.402       .  A
C1087      C1088   1.406       .  A
C1087      H1091   1.084       .  S
C1088      C1089   1.398       .  A
C1089      H1092   1.086       .  S
N1093      C1097   1.364       .  A
N1093      C1094   1.363       .  A
C1094      C1095   1.377       .  A
C1094      C1122   1.466       .  S
C1095      C1096   1.356       .  A
C1095      H1098   1.083       .  S
C1096      C1097   1.382       .  A
C1096      H1099   1.080   1_556  S
C1097      C1231   1.470       .  S
N1100      C1104   1.356       .  A
N1100      C1101   1.354       .  A
N1100      C1141   1.436       .  S
C1101      C1518   1.382       .  A
C1101      C1125   1.461       .  S
C1102      C1517   1.382       .  A
C1102      C1103   1.366       .  A
C1102      H1105   1.083       .  S
C1103      C1520   1.377       .  A
C1103      H1106   1.083       .  S
C1104      C1519   1.377       .  A
C1104      C1212   1.460       .  S
O1107      C1539   1.277       .  A
O1107     Zn1113   2.034       .  S
C1108      O1124   1.281       .  A
C1108      O1121   1.273       .  A
O1109      C1122   1.277       .  A
O1109     Cd1116   2.048       .  S
O1110      C1128   1.275       .  A
O1110     Cd1119   2.049       .  S
O1111      C1125   1.271       .  A
O1111     Cd1115   2.059       .  S
O1112      C1123   1.275       .  A
O1112     Cd1115   2.065       .  S
Zn1113     O1124   2.061       .  S
Zn1113     O1126   2.041       .  S
Zn1113     O1118   1.919       .  S
O1114      C1541   1.274       .  A
O1114     Cd1119   2.075       .  S
Cd1115     O1117   2.055       .  S
Cd1115     O1534   1.960   1_545  S
Cd1116     O1536   2.122       .  S
Cd1116     O1129   2.099       .  S
Cd1116     O1118   1.998       .  S
O1117      C1127   1.277       .  A
O1118     Cd1531   1.960       .  S
O1118     Cd1119   1.972       .  S
Cd1119     O1121   2.063       .  S
O1120      C1127   1.279       .  A
O1120     Cd1532   2.122   1_545  S
C1122      O1126   1.279       .  A
C1123      C1201   1.463       .  S
C1123      O1523   1.277   1_545  A
C1125      O1530   1.274   1_545  A
C1127      C1134   1.498       .  S
C1128      C1208   1.470       .  S
C1128      O1129   1.279       .  A
C1130      C1131   1.408       .  A
C1130      C1135   1.400       .  A
C1131      C1132   1.418       .  A
C1131      H1136   1.083       .  S
C1132      C1133   1.424       .  A
C1132      C1139   1.498   1_556  S
C1133      C1134   1.408       .  A
C1133      H1137   1.083       .  S
C1134      C1135   1.398       .  A
C1135      H1138   1.084       .  S
N1140      C1141   1.357       .  A
C1141      N1142   1.352       .  A
N1142      C1143   1.354       .  A
C1143      N1144   1.367       .  A
N1145      C1149   1.364       .  A
N1145      C1146   1.365       .  A
N1145      C1193   1.444       .  S
C1146      C1147   1.384       .  A
C1146      C1174   1.479       .  S
C1147      C1148   1.357       .  A
C1147      H1150   1.083       .  S
C1148      C1149   1.378       .  A
C1148      H1151   1.083       .  S
N1152      C1156   1.364       .  A
N1152      C1153   1.359       .  A
N1152      C1236   1.447       .  S
C1153      C1154   1.375       .  A
C1153      C1177   1.466       .  S
C1154      C1155   1.360       .  A
C1154      H1157   1.083   1_556  S
C1155      C1156   1.387       .  A
C1155      H1158   1.083       .  S
O1159      C1175   1.274       .  A
O1159     Zn1165   2.009       .  S
C1160      O1176   1.275       .  A
C1160      O1173   1.269       .  A
O1161      C1174   1.275       .  A
O1162      C1180   1.270       .  A
O1163      C1177   1.279       .  A
O1163     Cd1167   2.095       .  S
O1164     Cd1167   2.091       .  S
Zn1165     O1176   2.036       .  S
Zn1165     O1170   1.920       .  S
O1166      C1177   1.269       .  A
Cd1168     O1172   2.039   1_455  S
Cd1168     O1181   2.092   1_455  S
O1169      C1179   1.278       .  A
O1170     Cd1171   1.982       .  S
Cd1171     O1173   2.058       .  S
O1172      C1179   1.273       .  A
C1174      O1178   1.274       .  A
C1175      C1184   1.475       .  S
C1180      C1240   1.468       .  S
C1180      O1181   1.274       .  A
C1182      C1183   1.404       .  A
C1182      C1187   1.411       .  A
C1182      C1232   1.494       .  S
C1183      C1184   1.395       .  A
C1183      H1188   1.084       .  S
C1184      C1185   1.405       .  A
C1185      C1186   1.412       .  A
C1185      H1189   1.083       .  S
C1186      C1187   1.421       .  A
C1186      C1191   1.497       .  S
C1187      H1190   1.083       .  S
C1191      N1192   1.377       .  A
C1191      N1196   1.369       .  A
N1192      C1193   1.365       .  A
C1193      N1194   1.350       .  A
N1194      C1195   1.348       .  A
C1195      N1196   1.358       .  A
C1195      N1197   1.433       .  S
N1197      C1201   1.358       .  A
N1197      C1198   1.354       .  A
C1198      C1615   1.380       .  A
C1198      C1229   1.460       .  S
C1199      C1614   1.380       .  A
C1199      C1200   1.367       .  A
C1199      H1202   1.083       .  S
C1200      C1617   1.378       .  A
C1200      H1203   1.083       .  S
C1201      C1616   1.378       .  A
N1204      C1208   1.367       .  A
N1204      C1205   1.367       .  A
N1204      C1238   1.445       .  S
C1205      C1206   1.377       .  A
C1205      C1226   1.468       .  S
C1206      C1207   1.353       .  A
C1206      H1209   1.083       .  S
C1207      C1208   1.383       .  A
C1207      H1210   1.081       .  S
O1211      C1227   1.281       .  A
O1211     Zn1217   2.059       .  S
C1212      O1644   1.279   1_545  A
C1212      O1225   1.273       .  A
O1213      C1226   1.278       .  A
O1214      C1232   1.273       .  A
O1215      C1645   1.273       .  A
O1215     Cd1219   2.071       .  S
O1216     Cd1219   2.058       .  S
Zn1217     O1228   2.041       .  S
O1218      C1229   1.271       .  A
Cd1220     O1224   2.097       .  S
Cd1220     O1649   2.125       .  S
O1221      C1231   1.275   1_554  A
O1222     Cd1431   1.953       .  S
Cd1223     O1225   2.050       .  S
Cd1223     O1430   1.953   1_545  S
O1224      C1231   1.279       .  A
C1226      O1230   1.281       .  A
C1227      C1244   1.471       .  S
O1228      C1628   1.279       .  A
C1229      O1631   1.273   1_545  A
C1232      O1233   1.280       .  A
O1233     Cd1636   2.125   1_545  S
C1234      N1235   1.367       .  A
C1234      N1239   1.345       .  A
C1234      C1242   1.488       .  S
N1235      C1236   1.372       .  A
C1236      N1237   1.376       .  A
N1237      C1238   1.363       .  A
C1238      N1239   1.349       .  A
C1240      C1241   1.411       .  A
C1240      C1245   1.402       .  A
C1241      C1242   1.410       .  A
C1241      H1246   1.083       .  S
C1242      C1243   1.424       .  A
C1243      C1244   1.396       .  A
C1243      H1247   1.083       .  S
C1244      C1245   1.381       .  A
N1249      C1253   1.363       .  A
N1249      C1250   1.358       .  A
N1249      C1290   1.445       .  S
C1250      C1251   1.383       .  A
C1250      C1278   1.480       .  S
C1251      C1252   1.361       .  A
C1251      H1254   1.083       .  S
C1252      C1253   1.380       .  A
C1252      H1255   1.083       .  S
C1253      C1368   1.467       .  S
N1256      C1260   1.367       .  A
N1256      C1257   1.367       .  A
N1256      C1351   1.446       .  S
C1257      C1258   1.378       .  A
C1257      C1281   1.468       .  S
C1258      C1259   1.356       .  A
C1258      H1261   1.083       .  S
C1259      C1260   1.383       .  A
C1259      H1262   1.083       .  S
C1260      C1387   1.481       .  S
O1263      C1279   1.267       .  A
O1263     Zn1269   1.972       .  S
C1264      C1357   1.457       .  S
C1264      O1280   1.267       .  A
C1264      O1277   1.271       .  A
O1265      C1278   1.279       .  A
O1265     Cd1272   2.121       .  S
O1266      C1284   1.274       .  A
O1266     Cd1275   2.026       .  S
O1267      C1281   1.278       .  A
O1267     Cd1271   2.085       .  S
O1268      C1279   1.274       .  A
O1268     Cd1271   2.058       .  S
Zn1269     O1280   1.990       .  S
Zn1269     O1282   1.968       .  S
Zn1269     O1274   1.912       .  S
O1270      C1281   1.272       .  A
O1270     Cd1275   2.070       .  S
Cd1271     O1273   2.100       .  S
Cd1271     O1274   2.005       .  S
Cd1272     O1276   2.062       .  S
Cd1272     O1285   2.129       .  S
Cd1272     O1274   2.022       .  S
O1273      C1283   1.277       .  A
O1274     Cd1275   1.980       .  S
Cd1275     O1277   2.066       .  S
O1276      C1283   1.278       .  A
C1278      O1282   1.269       .  A
C1279      C1296   1.453       .  S
C1283      C1364   1.483       .  S
C1284      C1338   1.484       .  S
C1284      O1285   1.281       .  A
C1286      N1495   1.344       .  A
C1286      N1499   1.368       .  A
C1286      C1294   1.487   1_556  S
N1287      C1494   1.344       .  A
N1287      C1288   1.349       .  A
C1288      N1289   1.358       .  A
C1288      N1301   1.440       .  S
N1289      C1290   1.373       .  A
C1290      N1291   1.371       .  A
N1291      C1494   1.368       .  A
C1292      C1293   1.400       .  A
C1292      C1297   1.388       .  A
C1292      C1316   1.473       .  S
C1293      C1294   1.423       .  A
C1293      H1298   1.083       .  S
C1294      C1295   1.402       .  A
C1295      C1296   1.406       .  A
C1295      H1299   1.084       .  S
C1296      C1297   1.398       .  A
C1297      H1300   1.086       .  S
N1301      C1305   1.364       .  A
N1301      C1302   1.363       .  A
C1302      C1303   1.377       .  A
C1302      C1330   1.466       .  S
C1303      C1304   1.356       .  A
C1303      H1306   1.083       .  S
C1304      C1305   1.382       .  A
C1304      H1307   1.080       .  S
C1305      C1439   1.470       .  S
N1308      C1312   1.356       .  A
N1308      C1309   1.354       .  A
N1308      C1349   1.436       .  S
C1309      C1333   1.461       .  S
C1310      C1311   1.366       .  A
C1310      H1313   1.083       .  S
C1311      H1314   1.083       .  S
C1312      C1420   1.460       .  S
O1315     Zn1321   2.034       .  S
C1316      O1332   1.281       .  A
C1316      O1329   1.273       .  A
O1317      C1330   1.277       .  A
O1317     Cd1324   2.048       .  S
O1318      C1336   1.275       .  A
O1318     Cd1327   2.049       .  S
O1319      C1333   1.271       .  A
O1319     Cd1323   2.059       .  S
O1320      C1331   1.275       .  A
O1320     Cd1323   2.065       .  S
Zn1321     O1332   2.061       .  S
Zn1321     O1334   2.041       .  S
Zn1321     O1326   1.919       .  S
O1322     Cd1327   2.075       .  S
Cd1323     O1325   2.055       .  S
Cd1324     O1337   2.099       .  S
Cd1324     O1326   1.998       .  S
O1325      C1335   1.277       .  A
O1326     Cd1327   1.972       .  S
Cd1327     O1329   2.063       .  S
O1328      C1335   1.279       .  A
C1330      O1334   1.279       .  A
C1331      C1409   1.463       .  S
C1335      C1342   1.498       .  S
C1336      C1416   1.470       .  S
C1336      O1337   1.279       .  A
C1338      C1339   1.408       .  A
C1338      C1343   1.400       .  A
C1339      C1340   1.418       .  A
C1339      H1344   1.083       .  S
C1340      C1341   1.424       .  A
C1340      C1347   1.498       .  S
C1341      C1342   1.408       .  A
C1341      H1345   1.083       .  S
C1342      C1343   1.398       .  A
C1343      H1346   1.084       .  S
C1347      N1556   1.367       .  A
C1347      N1560   1.375       .  A
N1348      C1555   1.367       .  A
N1348      C1349   1.357       .  A
C1349      N1350   1.352       .  A
N1350      C1351   1.354       .  A
C1351      N1352   1.367       .  A
N1352      C1555   1.375       .  A
N1353      C1357   1.364       .  A
N1353      C1354   1.365       .  A
N1353      C1401   1.444       .  S
C1354      C1355   1.384       .  A
C1354      C1382   1.479       .  S
C1355      C1356   1.357       .  A
C1355      H1358   1.083   1_554  S
C1356      C1357   1.378       .  A
C1356      H1359   1.083       .  S
N1360      C1364   1.364       .  A
N1360      C1361   1.359       .  A
N1360      C1444   1.447       .  S
C1361      C1362   1.375       .  A
C1361      C1385   1.466       .  S
C1362      C1363   1.360       .  A
C1362      H1365   1.083       .  S
C1363      C1364   1.387       .  A
C1363      H1366   1.083       .  S
O1367      C1383   1.274       .  A
O1367     Zn1373   2.009       .  S
C1368      O1384   1.275       .  A
C1368      O1381   1.269       .  A
O1369      C1382   1.275       .  A
O1370      C1388   1.270       .  A
O1371      C1385   1.279       .  A
O1371     Cd1375   2.095       .  S
O1372     Cd1375   2.091       .  S
Zn1373     O1384   2.036       .  S
Zn1373     O1594   1.997       .  S
Zn1373     O1378   1.920       .  S
O1374      C1385   1.269       .  A
Cd1375     O1585   2.114       .  S
Cd1376     O1380   2.039   1_455  S
Cd1376     O1389   2.092   1_455  S
O1377      C1387   1.278       .  A
O1377     Cd1583   2.114   1_554  S
O1378     Cd1379   1.982       .  S
Cd1379     O1381   2.058       .  S
O1380      C1387   1.273       .  A
C1382      O1386   1.274       .  A
C1383      C1392   1.475       .  S
O1386     Zn1581   1.997   1_554  S
C1388      C1448   1.468       .  S
C1388      O1389   1.274       .  A
C1390      C1391   1.404       .  A
C1390      C1395   1.411       .  A
C1390      C1440   1.494       .  S
C1391      C1392   1.395       .  A
C1391      H1396   1.084       .  S
C1392      C1393   1.405       .  A
C1393      C1394   1.412       .  A
C1393      H1397   1.083       .  S
C1394      C1395   1.421       .  A
C1394      C1399   1.497       .  S
C1395      H1398   1.083       .  S
C1399      N1400   1.377       .  A
C1399      N1404   1.369       .  A
N1400      C1401   1.365       .  A
C1401      N1402   1.350       .  A
N1402      C1403   1.348       .  A
C1403      N1404   1.358       .  A
C1403      N1405   1.433       .  S
N1405      C1409   1.358       .  A
N1405      C1406   1.354       .  A
C1406      C1437   1.460       .  S
C1407      C1408   1.367       .  A
C1407      H1410   1.083   1_554  S
C1408      H1411   1.083       .  S
N1412      C1416   1.367       .  A
N1412      C1413   1.367       .  A
N1412      C1446   1.445       .  S
C1413      C1414   1.377       .  A
C1413      C1434   1.468       .  S
C1414      C1415   1.353       .  A
C1414      H1417   1.083       .  S
C1415      C1416   1.383       .  A
C1415      H1418   1.081       .  S
O1419      C1435   1.281       .  A
O1419     Zn1425   2.059       .  S
C1420      O1433   1.273       .  A
O1421      C1434   1.278       .  A
O1422      C1440   1.273       .  A
O1423     Cd1427   2.071       .  S
O1424     Cd1427   2.058       .  S
Zn1425     O1436   2.041       .  S
Zn1425     O1646   2.053   1_554  S
Zn1425     O1638   1.916       .  S
O1426      C1437   1.271       .  A
Cd1427     O1637   2.051       .  S
Cd1428     O1432   2.097       .  S
O1429      C1439   1.275       .  A
O1429     Cd1635   2.051       .  S
O1430     Zn1633   1.916       .  S
Cd1431     O1433   2.050       .  S
O1432      C1439   1.279       .  A
C1434      O1438   1.281       .  A
C1435      C1452   1.471       .  S
O1438     Zn1633   2.053       .  S
C1440      O1441   1.280       .  A
C1442      N1443   1.367       .  A
C1442      N1447   1.345       .  A
C1442      C1450   1.488       .  S
N1443      C1444   1.372       .  A
C1444      N1445   1.376       .  A
N1445      C1446   1.363       .  A
C1446      N1447   1.349       .  A
C1448      C1449   1.411       .  A
C1448      C1453   1.402       .  A
C1449      C1450   1.410       .  A
C1449      H1454   1.083       .  S
C1450      C1451   1.424       .  A
C1451      C1452   1.396       .  A
C1451      H1455   1.083       .  S
C1452      C1453   1.381       .  A
N1457      C1461   1.363       .  A
N1457      C1458   1.358       .  A
N1457      C1498   1.445       .  S
C1458      C1459   1.383       .  A
C1458      C1486   1.480       .  S
C1459      C1460   1.361       .  A
C1459      H1462   1.083       .  S
C1460      C1461   1.380       .  A
C1460      H1463   1.083       .  S
C1461      C1576   1.467       .  S
N1464      C1468   1.367       .  A
N1464      C1465   1.367       .  A
N1464      C1559   1.446       .  S
C1465      C1466   1.378       .  A
C1465      C1489   1.468       .  S
C1466      C1467   1.356       .  A
C1466      H1469   1.083       .  S
C1467      C1468   1.383       .  A
C1467      H1470   1.083       .  S
C1468      C1595   1.481       .  S
O1471      C1487   1.267       .  A
O1471     Zn1477   1.972       .  S
C1472      C1565   1.457       .  S
C1472      O1488   1.267       .  A
C1472      O1485   1.271       .  A
O1473      C1486   1.279       .  A
O1473     Cd1480   2.121       .  S
O1474      C1492   1.274       .  A
O1474     Cd1483   2.026       .  S
O1475      C1489   1.278       .  A
O1475     Cd1479   2.085       .  S
O1476      C1487   1.274       .  A
O1476     Cd1479   2.058       .  S
Zn1477     O1488   1.990       .  S
Zn1477     O1490   1.968       .  S
Zn1477     O1482   1.912       .  S
O1478      C1489   1.272       .  A
O1478     Cd1483   2.070       .  S
Cd1479     O1481   2.100       .  S
Cd1479     O1482   2.005       .  S
Cd1480     O1484   2.062       .  S
Cd1480     O1493   2.129       .  S
Cd1480     O1482   2.022       .  S
O1481      C1491   1.277       .  A
O1482     Cd1483   1.980       .  S
Cd1483     O1485   2.066       .  S
O1484      C1491   1.278       .  A
C1486      O1490   1.269       .  A
C1487      C1504   1.453       .  S
C1491      C1572   1.483       .  S
C1492      C1546   1.484       .  S
C1492      O1493   1.281       .  A
C1494      C1502   1.487       .  S
N1495      C1496   1.349       .  A
C1496      N1497   1.358       .  A
C1496      N1509   1.440       .  S
N1497      C1498   1.373       .  A
C1498      N1499   1.371       .  A
C1500      C1501   1.400       .  A
C1500      C1505   1.388       .  A
C1500      C1524   1.473       .  S
C1501      C1502   1.423       .  A
C1501      H1506   1.083       .  S
C1502      C1503   1.402       .  A
C1503      C1504   1.406       .  A
C1503      H1507   1.084       .  S
C1504      C1505   1.398       .  A
C1505      H1508   1.086       .  S
N1509      C1513   1.364       .  A
N1509      C1510   1.363       .  A
C1510      C1511   1.377       .  A
C1510      C1538   1.466       .  S
C1511      C1512   1.356       .  A
C1511      H1514   1.083       .  S
C1512      C1513   1.382       .  A
C1512      H1515   1.080   1_556  S
C1513      C1647   1.470       .  S
N1516      C1520   1.356       .  A
N1516      C1517   1.354       .  A
N1516      C1557   1.436       .  S
C1517      C1541   1.461       .  S
C1518      C1519   1.366       .  A
C1518      H1521   1.083       .  S
C1519      H1522   1.083       .  S
C1520      C1628   1.460       .  S
O1523     Zn1529   2.034       .  S
C1524      O1540   1.281       .  A
C1524      O1537   1.273       .  A
O1525      C1538   1.277       .  A
O1525     Cd1532   2.048       .  S
O1526      C1544   1.275       .  A
O1526     Cd1535   2.049       .  S
O1527      C1541   1.271       .  A
O1527     Cd1531   2.059       .  S
O1528      C1539   1.275       .  A
O1528     Cd1531   2.065       .  S
Zn1529     O1540   2.061       .  S
Zn1529     O1542   2.041       .  S
Zn1529     O1534   1.919       .  S
O1530     Cd1535   2.075       .  S
Cd1531     O1533   2.055       .  S
Cd1532     O1545   2.099       .  S
Cd1532     O1534   1.998       .  S
O1533      C1543   1.277       .  A
O1534     Cd1535   1.972       .  S
Cd1535     O1537   2.063       .  S
O1536      C1543   1.279       .  A
C1538      O1542   1.279       .  A
C1539      C1617   1.463       .  S
C1543      C1550   1.498       .  S
C1544      C1624   1.470       .  S
C1544      O1545   1.279       .  A
C1546      C1547   1.408       .  A
C1546      C1551   1.400       .  A
C1547      C1548   1.418       .  A
C1547      H1552   1.083       .  S
C1548      C1549   1.424       .  A
C1548      C1555   1.498   1_556  S
C1549      C1550   1.408       .  A
C1549      H1553   1.083       .  S
C1550      C1551   1.398       .  A
C1551      H1554   1.084       .  S
N1556      C1557   1.357       .  A
C1557      N1558   1.352       .  A
N1558      C1559   1.354       .  A
C1559      N1560   1.367       .  A
N1561      C1565   1.364       .  A
N1561      C1562   1.365       .  A
N1561      C1609   1.444       .  S
C1562      C1563   1.384       .  A
C1562      C1590   1.479       .  S
C1563      C1564   1.357       .  A
C1563      H1566   1.083       .  S
C1564      C1565   1.378       .  A
C1564      H1567   1.083       .  S
N1568      C1572   1.364       .  A
N1568      C1569   1.359       .  A
N1568      C1652   1.447       .  S
C1569      C1570   1.375       .  A
C1569      C1593   1.466       .  S
C1570      C1571   1.360       .  A
C1570      H1573   1.083   1_556  S
C1571      C1572   1.387       .  A
C1571      H1574   1.083       .  S
O1575      C1591   1.274       .  A
O1575     Zn1581   2.009       .  S
C1576      O1592   1.275       .  A
C1576      O1589   1.269       .  A
O1577      C1590   1.275       .  A
O1578      C1596   1.270       .  A
O1579      C1593   1.279       .  A
O1579     Cd1583   2.095       .  S
O1580     Cd1583   2.091       .  S
Zn1581     O1592   2.036       .  S
Zn1581     O1586   1.920       .  S
O1582      C1593   1.269       .  A
Cd1584     O1588   2.039   1_455  S
Cd1584     O1597   2.092   1_455  S
O1585      C1595   1.278       .  A
O1586     Cd1587   1.982       .  S
Cd1587     O1589   2.058       .  S
O1588      C1595   1.273       .  A
C1590      O1594   1.274       .  A
C1591      C1600   1.475       .  S
C1596      C1656   1.468       .  S
C1596      O1597   1.274       .  A
C1598      C1599   1.404       .  A
C1598      C1603   1.411       .  A
C1598      C1648   1.494       .  S
C1599      C1600   1.395       .  A
C1599      H1604   1.084       .  S
C1600      C1601   1.405       .  A
C1601      C1602   1.412       .  A
C1601      H1605   1.083       .  S
C1602      C1603   1.421       .  A
C1602      C1607   1.497       .  S
C1603      H1606   1.083       .  S
C1607      N1608   1.377       .  A
C1607      N1612   1.369       .  A
N1608      C1609   1.365       .  A
C1609      N1610   1.350       .  A
N1610      C1611   1.348       .  A
C1611      N1612   1.358       .  A
C1611      N1613   1.433       .  S
N1613      C1617   1.358       .  A
N1613      C1614   1.354       .  A
C1614      C1645   1.460       .  S
C1615      C1616   1.367       .  A
C1615      H1618   1.083       .  S
C1616      H1619   1.083       .  S
N1620      C1624   1.367       .  A
N1620      C1621   1.367       .  A
N1620      C1654   1.445       .  S
C1621      C1622   1.377       .  A
C1621      C1642   1.468       .  S
C1622      C1623   1.353       .  A
C1622      H1625   1.083       .  S
C1623      C1624   1.383       .  A
C1623      H1626   1.081       .  S
O1627      C1643   1.281       .  A
O1627     Zn1633   2.059       .  S
C1628      O1641   1.273       .  A
O1629      C1642   1.278       .  A
O1630      C1648   1.273       .  A
O1631     Cd1635   2.071       .  S
O1632     Cd1635   2.058       .  S
Zn1633     O1644   2.041       .  S
O1634      C1645   1.271       .  A
Cd1636     O1640   2.097       .  S
O1637      C1647   1.275   1_554  A
Cd1639     O1641   2.050       .  S
O1640      C1647   1.279       .  A
C1642      O1646   1.281       .  A
C1643      C1660   1.471       .  S
C1648      O1649   1.280       .  A
C1650      N1651   1.367       .  A
C1650      N1655   1.345       .  A
C1650      C1658   1.488       .  S
N1651      C1652   1.372       .  A
C1652      N1653   1.376       .  A
N1653      C1654   1.363       .  A
C1654      N1655   1.349       .  A
C1656      C1657   1.411       .  A
C1656      C1661   1.402       .  A
C1657      C1658   1.410       .  A
C1657      H1662   1.083       .  S
C1658      C1659   1.424       .  A
C1659      C1660   1.396       .  A
C1659      H1663   1.083       .  S
C1660      C1661   1.381       .  A
