geometry optimzed in LAMMPS
_audit_creation_date              2020-11-30 
_audit_creation_method            'lammps2cif' 
_symmetry_space_group_name_H-M    'P1' 
_symmetry_Int_Tables_number       1 
_symmetry_cell_setting            triclinic 
loop_ 
_symmetry_equiv_pos_as_xyz 
  x,y,z 
_cell_length_a                    28.45644939 
_cell_length_b                    28.54201933357631 
_cell_length_c                    36.13664872976083 
_cell_angle_alpha                 88.82949956856959 
_cell_angle_beta                  90.18106718911369 
_cell_angle_gamma                 90.17700670204962 
loop_ 
_atom_site_label 
_atom_site_type_symbol 
_atom_site_fract_x 
_atom_site_fract_y 
_atom_site_fract_z 
_atom_site_charge 
O1          O  0.72827085  0.16488823  0.46835003    -0.77600
C2          C  0.82116612  0.09636096  0.38907991     0.83400
O3          O  0.71166576  0.02323595  0.01147757    -0.78700
O4          O  0.87820849  0.99846172  0.47522637    -0.80200
O5          O  0.88794221  0.16594914  0.01471638    -0.80000
O6          O  0.76826620  0.19759448  0.01419471    -0.78600
Zn7        Zn  0.75657071  0.10326145  0.45562702     1.55700
O8          O  0.91901078  0.10778570  0.48216090    -0.80000
Cd9        Cd  0.81847975  0.14359087  0.02394436     1.59700
Cd10       Cd  0.78261975  0.03321433  0.02426888     1.59600
O11         O  0.81541643  0.12370877  0.08003328    -0.80000
O12         O  0.80464889  0.08727103  0.49238256    -1.90500
Cd13       Cd  0.86241066  0.06831587  0.46513527     1.59900
O14         O  0.78990096  0.04948954  0.08138466    -0.80000
O15         O  0.85473092  0.07857289  0.40806246    -0.78600
C16         C  0.68545518  0.03367722  0.48367932     0.83900
C17         C  0.73412608  0.19799193  0.49100361     0.83600
O18         O  0.78285747  0.10896976  0.40393196    -0.77600
C19         C  0.92300778  0.14577270  0.99978791     0.84400
O20         O  0.70064341  0.05805364  0.45630152    -0.77700
C21         C  0.80364795  0.08646388  0.09795205     0.84500
C22         C  0.85825766  0.96540735  0.99348904     0.84800
O23         O  0.82103536  0.97199229  0.01248547    -0.80100
O24         O  0.74155209  0.17586149  0.21453853    -0.77600
C25         C  0.80674621  0.08697548  0.13907648     0.83400
O26         O  0.73126569  0.03432425  0.28519390    -0.78700
O27         O  0.88568957  0.00986460  0.22161259    -0.80200
O28         O  0.89470964  0.17866314  0.26187898    -0.80000
O29         O  0.77535325  0.20537282  0.26471710    -0.78600
Zn30       Zn  0.76019803  0.10883865  0.21296923     1.55700
O31         O  0.92317164  0.12486942  0.22325808    -0.80000
Cd32       Cd  0.82709630  0.15467897  0.27430491     1.59700
Cd33       Cd  0.80195103  0.04530479  0.27927792     1.59600
O34         O  0.82262671  0.13755027  0.33109832    -0.80000
O35         O  0.81440747  0.09800289  0.24363539    -1.90500
Cd36       Cd  0.86717432  0.08018742  0.21085894     1.59900
O37         O  0.82427915  0.05947518  0.33196660    -0.80000
O38         O  0.84727502  0.08582954  0.15454361    -0.78600
C39         C  0.69772090  0.05228100  0.26663703     0.83900
C40         C  0.74456515  0.20719774  0.23901705     0.83600
O41         O  0.76926298  0.09116966  0.15817536    -0.77600
C42         C  0.92805366  0.16154625  0.24277259     0.84400
O43         O  0.70457782  0.07872442  0.23829372    -0.77700
C44         C  0.82417784  0.09824126  0.34859044     0.84500
C45         C  0.86740633  0.97740441  0.24187671     0.84800
O46         O  0.83326339  0.98468665  0.26352477    -0.80100
O47         O  0.58534335  0.26266005  0.40716292    -0.77600
C48         C  0.69687446  0.23421032  0.49144588     0.83400
O49         O  0.51861865  0.22548611  0.03722324    -0.78700
O50         O  0.63117561  0.31531608  0.07837396    -0.80200
O51         O  0.60943995  0.41752873  0.47456681    -0.80000
O52         O  0.58422548  0.34082227  0.40316880    -0.78600
Zn53       Zn  0.59472398  0.25018855  0.46406461     1.55700
O54         O  0.66486040  0.38962734  0.01327311    -0.80000
Cd55       Cd  0.57125612  0.35881600  0.45855767     1.59700
Cd56       Cd  0.53481503  0.29622056  0.02918339     1.59600
O57         O  0.50047317  0.37588822  0.46394692    -0.80000
O58         O  0.58732716  0.30564635  0.49288391    -1.90500
Cd59       Cd  0.64598799  0.31949544  0.02218975     1.59900
O60         O  0.47561829  0.33117585  0.01155062    -0.80000
O61         O  0.69945847  0.26989080  0.01223208    -0.78600
C62         C  0.53000773  0.19161520  0.51677905     0.83900
C63         C  0.58571932  0.30085089  0.38777597     0.83600
O64         O  0.66036166  0.22613532  0.47201829    -0.77600
C65         C  0.64481943  0.42350807  0.49581567     0.84400
O66         O  0.55525338  0.19789383  0.48792118    -0.77700
C67         C  0.46840803  0.36192204  0.48621848     0.84500
C68         C  0.59311610  0.32091091  0.09623478     0.84800
O69         O  0.55309040  0.32160297  0.08046086    -0.80100
O70         O  0.60961192  0.28385557  0.15259975    -0.77600
C71         C  0.70650166  0.24185260  0.23935503     0.83400
O72         O  0.52460524  0.21479572  0.25480295    -0.78700
O73         O  0.62650572  0.31389393  0.33070385    -0.84600
O74         O  0.62173077  0.41983519  0.22643254    -0.80000
O75         O  0.57945810  0.35561969  0.15461477    -0.78600
Zn76       Zn  0.61025543  0.25940113  0.20422536     1.55700
O77         O  0.67398774  0.38805535  0.26592811    -0.80000
Cd78       Cd  0.57666959  0.36559975  0.21192767     1.59700
Cd79       Cd  0.53949542  0.28324504  0.26989922     1.59600
O80         O  0.50832670  0.38492662  0.22402199    -0.80000
O81         O  0.59410295  0.30682976  0.24022045    -1.90500
Cd82       Cd  0.64859187  0.31966485  0.27487254     1.59900
O83         O  0.48078626  0.32425502  0.25754308    -0.80000
O84         O  0.70301834  0.27162369  0.26516946    -0.78600
C85         C  0.53781694  0.18787512  0.22899568     0.83900
C86         C  0.59479186  0.32088055  0.13659750     0.83600
O87         O  0.67451522  0.23686726  0.21510264    -0.77600
C88         C  0.65810633  0.42290673  0.24703276     0.84400
O89         O  0.56839894  0.20099223  0.20535571    -0.77700
C90         C  0.47499266  0.36352330  0.24076550     0.84500
C91         C  0.58879734  0.29944178  0.34653693     0.84800
O92         O  0.55345067  0.28536427  0.32771144    -0.80100
O93         O  0.54829167  0.11743248  0.04283220    -0.77600
C94         C  0.55335538  0.96727241  0.09379961     0.83400
O95         O  0.60773581  0.01053555  0.46186512    -0.78700
O96         O  0.52626212  0.90995379  0.01334284    -0.80200
O97         O  0.40155992  0.03103456  0.54546466    -0.80000
O98         O  0.47783360  0.12636923  0.51577332    -0.78600
Zn99       Zn  0.55927562  0.04666036  0.04492077     1.55700
O100        O  0.41837592  0.95881151  0.02811196    -0.80000
Cd101      Cd  0.45718995  0.05619984  0.51515324     1.59700
Cd102      Cd  0.53266192  0.00051426  0.46370971     1.59600
O103        O  0.43348941  0.04007566  0.46495652    -0.80000
O104        O  0.51332564  0.01702461  0.51577768    -1.90500
Cd105      Cd  0.48960618  0.96052452  0.03839974     1.59900
O106        O  0.49648468  0.05290494  0.43213894    -0.80000
O107        O  0.50913772  0.96317656  0.09158171    -0.78600
C108        C  0.63450149  0.02594417  0.48774325     0.83900
C109        C  0.51698288  0.14307754  0.52698964     0.83600
O110        O  0.57086087  0.00846069  0.09227650    -0.77600
C111        C  0.38855702  0.99095278  0.53425935     0.84400
O112        O  0.61830939  0.03877843  0.01849463    -0.77700
C113        C  0.45421388  0.06372720  0.44039519     0.84500
C114        C  0.51167348  0.89805196  0.48196606     0.84800
O115        O  0.50793214  0.92911868  0.45589058    -0.80100
O116        O  0.51394132  0.12369343  0.26384711    -0.77600
C117        C  0.49433355  0.05584049  0.34544339     0.83400
O118        O  0.63792666  0.00072771  0.28768912    -0.78700
O119        O  0.49066637  0.91337166  0.28975411    -0.80200
O120        O  0.42547648  0.02724545  0.21562491    -0.80000
O121        O  0.52267811  0.10970256  0.20464237    -0.78600
Zn122      Zn  0.54986713  0.07142838  0.28596391     1.55700
O123        O  0.41732693  0.99691781  0.27305101    -0.80000
Cd124      Cd  0.49982737  0.03801113  0.21331654     1.59700
Cd125      Cd  0.57996018  0.97887154  0.25959157     1.59600
O126        O  0.53184182  0.98833397  0.17861187    -0.80000
O127        O  0.52471348  0.01845891  0.26422756    -1.90500
Cd128      Cd  0.48068197  0.98421236  0.29570318     1.59900
O129        O  0.59555252  0.00317802  0.20890373    -0.80000
O130        O  0.48199502  0.01305432  0.34763867    -0.78600
C131        C  0.64947185  0.04207837  0.27734581     0.83900
C132        C  0.52267074  0.13839142  0.23153356     0.83600
O133        O  0.53749111  0.06425701  0.33971480    -0.77600
C134        C  0.40011080  0.01122927  0.24246198     0.84400
O135        O  0.61868084  0.07409250  0.27286416    -0.77700
C136        C  0.57403965  0.97735019  0.18701115     0.84500
C137        C  0.52091277  0.88998608  0.27193460     0.84800
O138        O  0.55895515  0.90827933  0.25948005    -0.80100
O139        O  0.46344873  0.83688300  0.45682851    -0.77600
C140        C  0.43965461  0.71862191  0.39053079     0.83400
O141        O  0.33049573  0.76111778  0.02041221    -0.78700
O142        O  0.41681415  0.61852836  0.47585667    -0.80200
O143        O  0.55284052  0.71391664  0.01671815    -0.80000
O144        O  0.50732162  0.82161973  0.00670648    -0.78600
Zn145      Zn  0.42121121  0.77787566  0.45710976     1.55700
O146        O  0.52833772  0.65575902  0.48092899    -0.80000
Cd147      Cd  0.49224287  0.75392302  0.02428212     1.59700
Cd148      Cd  0.38495613  0.71196816  0.02744619     1.59600
O149        O  0.47445685  0.75316638  0.08091218    -0.80000
O150        O  0.43925496  0.73007271  0.49380586    -1.90500
Cd151      Cd  0.46095550  0.67446018  0.46615673     1.59900
O152        O  0.40656024  0.71386690  0.08380238    -0.80000
O153        O  0.46062278  0.68702625  0.40956337    -0.78600
C154        C  0.32673238  0.79358927  0.49571379     0.83900
C155        C  0.49437975  0.84918555  0.48033013     0.83600
O156        O  0.41937814  0.75311057  0.40539938    -0.77600
C157        C  0.56015203  0.67593116  0.49965609     0.84400
O158        O  0.35771326  0.80010651  0.47076237    -0.77700
C159        C  0.44140110  0.73391511  0.09965730     0.84500
C160        C  0.37864113  0.61259138  0.49360392     0.84800
O161        O  0.36071775  0.64452552  0.01350678    -0.80100
O162        O  0.48010721  0.83595764  0.23536652    -0.77600
C163        C  0.44488269  0.73313319  0.14084455     0.83400
O164        O  0.33464258  0.76417144  0.26730628    -0.78700
O165        O  0.42608275  0.61961137  0.22713516    -0.80200
O166        O  0.56013458  0.70175216  0.26819785    -0.80000
O167        O  0.51964515  0.80830764  0.28441441    -0.78600
Zn168      Zn  0.43717544  0.78451150  0.21579474     1.55700
O169        O  0.53722352  0.65894882  0.22035963    -0.80000
Cd170      Cd  0.50086401  0.73867967  0.28183146     1.59700
Cd171      Cd  0.38848593  0.71385642  0.27552812     1.59600
O172        O  0.48167731  0.71998824  0.33496974    -0.80000
O173        O  0.44741876  0.72914585  0.24616221    -1.90500
Cd174      Cd  0.46619138  0.67716202  0.21316757     1.59900
O175        O  0.40331837  0.71717540  0.33176447    -0.80000
O176        O  0.45255852  0.69396278  0.15742508    -0.78600
C177        C  0.33699402  0.80151998  0.24730555     0.83900
C178        C  0.50777973  0.84187557  0.26282582     0.83600
O179        O  0.44113716  0.77117490  0.15895438    -0.77600
C180        C  0.56849482  0.67182552  0.24352080     0.84400
O181        O  0.37269925  0.81012286  0.22695404    -0.77700
C182        C  0.44152476  0.71752933  0.35024222     0.84500
C183        C  0.38892212  0.61253639  0.24599814     0.84800
O184        O  0.36864163  0.64467498  0.26426058    -0.80100
O185        O  0.26812583  0.94646060  0.41585008    -0.77600
C186        C  0.33977152  0.98268422  0.52375940     0.83400
O187        O  0.26087186  0.83119264  0.02416351    -0.78700
O188        O  0.21176393  0.97865850  0.08761052    -0.80200
O189        O  0.15038688  0.02694209  0.47703599    -0.80000
O190        O  0.19022849  0.95118596  0.41137241    -0.78600
Zn191      Zn  0.27592986  0.92863130  0.47096879     1.55700
O192        O  0.20444515  0.05249288  0.01703991    -0.80000
Cd193      Cd  0.17037227  0.95754472  0.46705019     1.59700
Cd194      Cd  0.20911318  0.88236187  0.03307863     1.59600
O195        O  0.11538061  0.91205838  0.47752368    -0.80000
O196        O  0.22220904  0.93934528  0.50113176    -1.90500
Cd197      Cd  0.23557657  0.99199886  0.03495544     1.59900
O198        O  0.14214345  0.85798138  0.01846752    -0.80000
O199        O  0.30672917  0.00183769  0.04142777    -0.78600
C200        C  0.28971715  0.82932701  0.49722084     0.83900
C201        C  0.23072552  0.94941652  0.39631379     0.83600
O202        O  0.33206190  0.95647603  0.49623744    -0.77600
C203        C  0.16904137  0.05935258  0.49619455     0.84400
O204        O  0.29198205  0.86151490  0.47248773    -0.77700
C205        C  0.11005255  0.87473422  0.49711441     0.84500
C206        C  0.21074574  0.94008348  0.10569591     0.84800
O207        O  0.21203756  0.90047501  0.08968529    -0.80100
O208        O  0.25144126  0.92869669  0.16172286    -0.77600
C209        C  0.34935369  0.00377690  0.23946732     0.83400
O210        O  0.26664954  0.83808476  0.27189720    -0.78700
O211        O  0.24874657  0.98552705  0.33786965    -0.80200
O212        O  0.15978219  0.04008670  0.23260264    -0.80000
O213        O  0.18127620  0.96239209  0.16443275    -0.78600
Zn214      Zn  0.27814388  0.93479264  0.21303664     1.55700
O215        O  0.21723464  0.06365357  0.27027449    -0.80000
Cd216      Cd  0.17478722  0.97118582  0.22167351     1.59700
Cd217      Cd  0.21687753  0.89280101  0.28249683     1.59600
O218        O  0.11799706  0.93254292  0.23822346    -0.80000
O219        O  0.23126192  0.94958489  0.24989960    -1.90500
Cd220      Cd  0.25468573  0.00207696  0.28105158     1.59900
O221        O  0.14612336  0.87330748  0.27335119    -0.80000
O222        O  0.32457297  0.01266741  0.26787108    -0.78600
C223        C  0.30042648  0.83861447  0.24837715     0.83900
C224        C  0.21372045  0.94261855  0.14620169     0.83600
O225        O  0.33316762  0.98069921  0.21242946    -0.77600
C226        C  0.17991327  0.07151236  0.25153338     0.84400
O227        O  0.30639550  0.87311402  0.22607245    -0.77700
C228        C  0.11228072  0.89468487  0.25676611     0.84500
C229        C  0.23392627  0.94904218  0.35535625     0.84800
O230        O  0.22094889  0.91214406  0.33848711    -0.80100
O231        O  0.97048404  0.69225530  0.03264037    -0.77600
C232        C  0.94051111  0.81736666  0.10147440     0.83400
O233        O  0.83309703  0.76837324  0.47423132    -0.78700
O234        O  0.92044308  0.91511208  0.01029462    -0.80200
O235        O  0.05718153  0.81479788  0.47898551    -0.80000
O236        O  0.00855174  0.70573661  0.47969179    -0.78600
Zn237      Zn  0.92791236  0.75190495  0.03565217     1.55700
O238        O  0.03095490  0.87357305  0.01336176    -0.80000
Cd239      Cd  0.99608477  0.77647608  0.46730661     1.59700
Cd240      Cd  0.88741568  0.81730668  0.46535677     1.59600
O241        O  0.98003945  0.78379030  0.41038997    -0.80000
O242        O  0.94290903  0.80008878  0.99827464    -1.90500
Cd243      Cd  0.96209103  0.85812615  0.02439982     1.59900
O244        O  0.90871888  0.81663367  0.40927774    -0.80000
O245        O  0.95667763  0.85042844  0.08110517    -0.78600
C246        C  0.83030605  0.73661055  0.99956378     0.83900
C247        C  0.99743267  0.67841189  0.00674970     0.83600
O248        O  0.92705701  0.77847749  0.08804259    -0.77600
C249        C  0.06376267  0.85263784  0.49662662     0.84400
O250        O  0.86293517  0.73006438  0.02340827    -0.77700
C251        C  0.94513760  0.80141063  0.39260462     0.84500
C252        C  0.88096427  0.91905457  0.99385664     0.84800
O253        O  0.86180883  0.88471396  0.47725796    -0.80100
O254        O  0.98216538  0.71331743  0.25072492    -0.77600
C255        C  0.94747292  0.80566367  0.35153168     0.83400
O256        O  0.83398118  0.77837454  0.22890091    -0.78700
O257        O  0.92265587  0.92402041  0.26503183    -0.80200
O258        O  0.05638496  0.84957078  0.22682844    -0.80000
O259        O  0.01833232  0.74783969  0.20247501    -0.78600
Zn260      Zn  0.94030871  0.76002331  0.27538719     1.55700
O261        O  0.03429667  0.88328071  0.27911584    -0.80000
Cd262      Cd  0.99791733  0.81483696  0.20989290     1.59700
Cd263      Cd  0.88760571  0.82747171  0.21614653     1.59600
O264        O  0.97807104  0.83604585  0.15738682    -0.80000
O265        O  0.94582690  0.81661561  0.24673501    -1.90500
Cd266      Cd  0.96209528  0.86677839  0.28174056     1.59900
O267        O  0.90284900  0.81504060  0.16027336    -0.80000
O268        O  0.94622733  0.84648887  0.33641971    -0.78600
C269        C  0.83786028  0.74155989  0.24938948     0.83900
C270        C  0.00778573  0.71190933  0.22176867     0.83600
O271        O  0.95074064  0.76889441  0.33194212    -0.77600
C272        C  0.06546218  0.87377648  0.25501914     0.84400
O273        O  0.87522454  0.73330169  0.26800352    -0.77700
C274        C  0.94011180  0.82352443  0.14173731     0.84500
C275        C  0.88807170  0.93064481  0.24293545     0.84800
O276        O  0.86968629  0.89803326  0.22365390    -0.80100
O277        O  0.76152630  0.59509757  0.08607319    -0.77600
C278        C  0.83612002  0.54136082  0.98885344     0.83400
O279        O  0.75942452  0.70166476  0.47566051    -0.78700
O280        O  0.72307992  0.55711860  0.41131266    -0.80200
O281        O  0.64813243  0.50079368  0.02038271    -0.80000
O282        O  0.68540245  0.57745739  0.08942065    -0.78600
Zn283      Zn  0.77254844  0.60503702  0.03143995     1.55700
O284        O  0.69901298  0.48026176  0.47674014    -0.80000
Cd285      Cd  0.66700875  0.57118065  0.03246403     1.59700
Cd286      Cd  0.70713286  0.64997586  0.46796418     1.59600
O287        O  0.61137901  0.61613934  0.02002255    -0.80000
O288        O  0.71989191  0.59230930  0.99974508    -1.90500
Cd289      Cd  0.73513808  0.54031076  0.46567641     1.59900
O290        O  0.63980219  0.67266146  0.48179364    -0.80000
O291        O  0.80451069  0.52488119  0.46804189    -0.78600
C292        C  0.79183559  0.70199249  0.00021256     0.83900
C293        C  0.72484458  0.58643974  0.10501598     0.83600
O294        O  0.82744076  0.56985838  0.01437719    -0.77600
C295        C  0.66503317  0.47070881  0.49817475     0.84400
O296        O  0.79568532  0.66936536  0.02433836    -0.77700
C297        C  0.60662301  0.65419093  0.50106673     0.84500
C298        C  0.71592273  0.59566151  0.39420690     0.84800
O299        O  0.70962234  0.63403626  0.41114312    -0.80100
O300        O  0.75734200  0.60780426  0.33868144    -0.77600
C301        C  0.85656594  0.54478084  0.25537394     0.83400
O302        O  0.76875668  0.70218788  0.22567788    -0.78700
O303        O  0.74421679  0.55251184  0.16382252    -0.80200
O304        O  0.66004790  0.50120476  0.26653668    -0.80000
O305        O  0.68461577  0.57882071  0.33497929    -0.78600
Zn306      Zn  0.78240709  0.60782486  0.28649515     1.55700
O307        O  0.72034639  0.47597496  0.23289118    -0.80000
Cd308      Cd  0.67610090  0.57060423  0.27795828     1.59700
Cd309      Cd  0.71848486  0.64758010  0.21745842     1.59600
O310        O  0.61921903  0.61104007  0.26181488    -0.80000
O311        O  0.73370217  0.59155309  0.25064906    -1.90500
Cd312      Cd  0.75653271  0.53831944  0.22031239     1.59900
O313        O  0.64954475  0.66996716  0.22765913    -0.80000
O314        O  0.82869042  0.53204237  0.22955657    -0.78600
C315        C  0.80127191  0.70436744  0.25025397     0.83900
C316        C  0.71879302  0.59517915  0.35372812     0.83600
O317        O  0.84205880  0.56812098  0.28270368    -0.77600
C318        C  0.68126773  0.46888993  0.24941019     0.84400
O319        O  0.80680601  0.67188373  0.27447655    -0.77700
C320        C  0.61488506  0.64959427  0.24377068     0.84500
C321        C  0.72872504  0.58829983  0.14584860     0.84800
O322        O  0.71834848  0.62643240  0.16191603    -0.80100
O323        O  0.10822951  0.25577623  0.08585011    -0.77600
C324        C  0.20422772  0.29244298  0.49521613     0.83400
O325        O  0.01983890  0.30755024  0.47685552    -0.78700
O326        O  0.12896475  0.21241221  0.41132704    -0.80200
O327        O  0.11190114  0.11132156  0.01682240    -0.80000
O328        O  0.08178968  0.18240990  0.08927506    -0.78600
Zn329      Zn  0.10969098  0.27174431  0.03178439     1.55700
O330        O  0.16751796  0.13917654  0.47797220    -0.80000
Cd331      Cd  0.07179451  0.16798122  0.03234209     1.59700
Cd332      Cd  0.03759638  0.23963775  0.46724656     1.59600
O333        O  0.00080025  0.15112856  0.02333015    -0.80000
O334        O  0.09215333  0.22172136  0.49965559    -1.90500
Cd335      Cd  0.14808107  0.20833587  0.46702846     1.59900
O336        O  0.97821996  0.20090017  0.47835529    -0.80000
O337        O  0.20318223  0.25839164  0.47278271    -0.78600
C338        C  0.03642262  0.33638718  0.49976999     0.83900
C339        C  0.09623244  0.21976417  0.10474606     0.83600
O340        O  0.17196047  0.29775389  0.01888445    -0.77600
C341        C  0.14795639  0.10576553  0.49641945     0.84400
O342        O  0.06860544  0.32584750  0.02276369    -0.77700
C343        C  0.96962255  0.16753658  0.50113588     0.84500
C344        C  0.09093412  0.22270689  0.39432491     0.84800
O345        O  0.05342876  0.23328504  0.41138030    -0.80100
O346        O  0.10534943  0.26201116  0.33761759    -0.77600
C347        C  0.20608779  0.30247630  0.24957042     0.83400
O348        O  0.04322834  0.32978915  0.21915428    -0.78700
O349        O  0.13499863  0.21351984  0.16316598    -0.80200
O350        O  0.11806115  0.12152138  0.26725389    -0.80000
O351        O  0.07689445  0.18924888  0.33556958    -0.78600
Zn352      Zn  0.11024391  0.28327270  0.28425504     1.55700
O353        O  0.17870371  0.15222992  0.23562975    -0.80000
Cd354      Cd  0.07469730  0.17765874  0.27845347     1.59700
Cd355      Cd  0.04588965  0.25661072  0.21576493     1.59600
O356        O  0.00659406  0.16109213  0.26286816    -0.80000
O357        O  0.09636894  0.23383719  0.24977554    -1.90500
Cd358      Cd  0.15316273  0.21779907  0.21948905     1.59900
O359        O  0.98244847  0.22248875  0.22832996    -0.80000
O360        O  0.20444609  0.26987220  0.22588358    -0.78600
C361        C  0.05296065  0.35711504  0.24569604     0.83900
C362        C  0.09099559  0.22457837  0.35370259     0.83600
O363        O  0.17442595  0.30734282  0.27394115    -0.77600
C364        C  0.15817373  0.11782381  0.25194052     0.84400
O365        O  0.07148077  0.34194719  0.27568460    -0.77700
C366        C  0.97476668  0.18316557  0.24479326     0.84500
C367        C  0.09732991  0.22345302  0.14536772     0.84800
O368        O  0.06122649  0.23991295  0.16130951    -0.80100
O369        O  0.23435961  0.36342496  0.01601348    -0.77600
C370        C  0.32136199  0.43924081  0.09477774     0.83400
O371        O  0.21115844  0.50796741  0.46913324    -0.78700
O372        O  0.37817308  0.53255674  0.00877036    -0.80200
O373        O  0.38832839  0.36599086  0.46820544    -0.80000
O374        O  0.27114037  0.33284308  0.46794979    -0.78600
Zn375      Zn  0.25859645  0.42725145  0.02717720     1.55700
O376        O  0.41875424  0.42239471  0.00337086    -0.80000
Cd377      Cd  0.31954200  0.38851752  0.45802651     1.59700
Cd378      Cd  0.28257474  0.49830311  0.45935277     1.59600
O379        O  0.31633146  0.41010287  0.40206902    -0.80000
O380        O  0.30551937  0.44384025  0.49057717    -1.90500
Cd381      Cd  0.36283401  0.46300665  0.01850623     1.59900
O382        O  0.29081476  0.48418425  0.40270749    -0.80000
O383        O  0.35525339  0.45553005  0.07552249    -0.78600
C384        C  0.18581946  0.49608316  0.49687700     0.83900
C385        C  0.23964435  0.33054249  0.49311297     0.83600
O386        O  0.28319443  0.42574015  0.07989288    -0.77600
C387        C  0.42271360  0.38483077  0.48525067     0.84400
O388        O  0.20165278  0.47026354  0.02329483    -0.77700
C389        C  0.30441429  0.44813577  0.38523364     0.84500
C390        C  0.35686366  0.56604523  0.49214614     0.84800
O391        O  0.31933419  0.55974580  0.47328273    -0.80100
O392        O  0.23303171  0.37710936  0.26449279    -0.77600
C393        C  0.30719818  0.45049919  0.34428022     0.83400
O394        O  0.23600737  0.51361736  0.19339792    -0.78700
O395        O  0.38211800  0.53401337  0.26760058    -0.80200
O396        O  0.39481788  0.36673895  0.22329584    -0.80000
O397        O  0.27680690  0.33652773  0.22539709    -0.78600
Zn398      Zn  0.25770385  0.44237535  0.26925081     1.55700
O399        O  0.42361812  0.42250323  0.26006331    -0.80000
Cd400      Cd  0.32606518  0.38832068  0.21153437     1.59700
Cd401      Cd  0.30591576  0.49793382  0.20177109     1.59600
O402        O  0.31872439  0.40197438  0.15433623    -0.80000
O403        O  0.31350540  0.44688053  0.23967292    -1.90500
Cd404      Cd  0.36593859  0.46280687  0.27364269     1.59900
O405        O  0.32969734  0.47927609  0.15044071    -0.80000
O406        O  0.34753256  0.44959144  0.32895718    -0.78600
C407        C  0.20215520  0.50699390  0.21568114     0.83900
C408        C  0.24152012  0.33986907  0.24685913     0.83600
O409        O  0.26946285  0.45279873  0.32500970    -0.77600
C410        C  0.42854403  0.38537399  0.24137025     0.84400
O411        O  0.20712066  0.48441889  0.24638723    -0.77700
C412        C  0.32442578  0.43977706  0.13530809     0.84500
C413        C  0.36835545  0.56574363  0.24462760     0.84800
O414        O  0.33962488  0.55757919  0.21849045    -0.80100
O415        O  0.05470492  0.41530239  0.50160019    -0.77600
C416        C  0.97114896  0.46287860  0.41699225     0.83400
O417        O  0.11275049  0.51565842  0.02569174    -0.78700
O418        O  0.01291365  0.61229518  0.47128235    -0.80200
O419        O  0.89517717  0.48925399  0.97051668    -0.80000
O420        O  0.98204413  0.39666735  0.98573636    -0.78600
Zn421      Zn  0.05014993  0.47001309  0.46867973     1.55700
O422        O  0.91595702  0.55943582  0.48880222    -0.80000
Cd423      Cd  0.95807545  0.46555434  0.99204566     1.59700
Cd424      Cd  0.03937677  0.52674537  0.03635239     1.59600
O425        O  0.94307745  0.47575203  0.04328443    -0.80000
O426        O  0.01168738  0.50871339  0.49066606    -1.90500
Cd427      Cd  0.97816180  0.55114702  0.46261435     1.59900
O428        O  0.01188128  0.46642778  0.06830745    -0.80000
O429        O  0.95914746  0.50583332  0.42111713    -0.78600
C430        C  0.13506298  0.50571785  0.49584722     0.83900
C431        C  0.02297267  0.38486141  0.49659713     0.83600
O432        O  0.01093722  0.44735822  0.42794774    -0.77600
C433        C  0.88439093  0.52928902  0.98242303     0.84400
O434        O  0.11365481  0.49743250  0.46557554    -0.77700
C435        C  0.97059864  0.45029128  0.06139881     0.84500
C436        C  0.01095138  0.62808017  0.00421813     0.84800
O437        O  0.01588367  0.60055554  0.03317980    -0.80100
O438        O  0.00594249  0.47632782  0.15077267    -0.77600
C439        C  0.15564349  0.52568481  0.20679134     0.83400
O440        O  0.02652455  0.43230858  0.26514507    -0.78700
O441        O  0.06789171  0.60432053  0.28830449    -0.80200
O442        O  0.98618418  0.63890572  0.20235244    -0.80000
O443        O  0.97085388  0.54453705  0.14274652    -0.78600
Zn444      Zn  0.05853563  0.49081188  0.18716938     1.55700
O445        O  0.06286534  0.65266933  0.20878739    -0.80000
Cd446      Cd  0.98021711  0.56964900  0.19337020     1.59700
Cd447      Cd  0.01171537  0.50484635  0.26315585     1.59600
O448        O  0.91902345  0.55340482  0.21617464    -0.80000
O449        O  0.03171116  0.53706623  0.21788875    -1.90500
Cd450      Cd  0.07658553  0.58866032  0.23283901     1.59900
O451        O  0.93823721  0.52598413  0.27220810    -0.80000
O452        O  0.14104969  0.55871567  0.22696889    -0.78600
C453        C  0.04577820  0.40788268  0.24033448     0.83900
C454        C  0.96863060  0.50015930  0.14498023     0.83600
O455        O  0.12955469  0.50487978  0.18296974    -0.77600
C456        C  0.02031925  0.66617892  0.20884670     0.84400
O457        O  0.05989558  0.42662916  0.21030686    -0.77700
C458        C  0.90744945  0.54040254  0.24837581     0.84500
C459        C  0.06735920  0.56691679  0.30738403     0.84800
O460        O  0.06978193  0.52876185  0.29062558    -0.80100
C461        C  0.90740852  0.45963548  0.33998114    -0.04600
C462        C  0.95406760  0.45390438  0.32791337     0.09600
C463        C  0.96682443  0.40754492  0.33802298    -0.02000
C464        C  0.96265545  0.39683776  0.37620128    -0.00200
C465        C  0.93914947  0.43043376  0.39749619    -0.03900
C466        C  0.90102452  0.45179767  0.37843890     0.03200
C467        C  0.98830442  0.49289440  0.34043997     0.10000
C468        C  0.96501583  0.37047861  0.31151197     0.35900
C469        C  0.85542526  0.45417164  0.39549141     0.39300
C470        C  0.03640201  0.48318754  0.35173549    -0.04200
C471        C  0.06564991  0.52102307  0.36224748     0.02900
C472        C  0.05407440  0.56464735  0.34671487    -0.03800
C473        C  0.00713627  0.57645327  0.35061577     0.00000
C474        C  0.97312104  0.54089960  0.34556798    -0.02600
C475        C  0.05848888  0.43763977  0.34930382     0.36600
C476        C  0.99477715  0.62542330  0.35306087     0.40300
C477        C  0.11363974  0.51383450  0.37450687     0.39400
C478        C  0.92433493  0.55491651  0.34821859     0.36300
C479        C  0.86876000  0.45436445  0.31445941     0.37000
C480        C  0.97616769  0.35210356  0.39185883     0.40200
N481        N  0.15204949  0.50823679  0.38417354    -0.37800
N482        N  0.07718867  0.40178808  0.34741439    -0.39400
N483        N  0.98488398  0.66460328  0.35504433    -0.37200
N484        N  0.88592584  0.56704972  0.35190167    -0.39500
N485        N  0.96225827  0.34020795  0.29079859    -0.39300
N486        N  0.98692237  0.31567056  0.40353803    -0.36900
N487        N  0.81850439  0.45569429  0.40870185    -0.38000
N488        N  0.83774661  0.44874057  0.29422146    -0.39700
C489        C  0.87849840  0.35821279  0.07760954    -0.04600
C490        C  0.88522979  0.36123710  0.11551958     0.09600
C491        C  0.93315056  0.35492071  0.12555449    -0.02000
C492        C  0.96742348  0.37962609  0.10465280    -0.00200
C493        C  0.95229294  0.40262026  0.07198234    -0.03900
C494        C  0.90995410  0.38441278  0.05526649     0.03200
C495        C  0.86084286  0.40266324  0.13288122     0.10000
C496        C  0.94529434  0.32798517  0.15835072     0.35900
C497        C  0.89567666  0.39376130  0.01745751     0.39300
C498        C  0.87393491  0.41003359  0.16936315    -0.04200
C499        C  0.91001509  0.44308193  0.17503922     0.02900
C500        C  0.92208491  0.47562983  0.14614365    -0.03800
C501        C  0.88848483  0.48191278  0.11783628     0.00000
C502        C  0.85620579  0.44500422  0.11155440    -0.02600
C503        C  0.85996262  0.37605380  0.19759434     0.36600
C504        C  0.88738324  0.52501943  0.09616432     0.40300
C505        C  0.93132172  0.44328296  0.21082196     0.39400
C506        C  0.82148000  0.44889046  0.08234821     0.36300
C507        C  0.83427523  0.34023425  0.06388026     0.37000
C508        C  0.01626237  0.38050092  0.11566931     0.40200
N509        N  0.94251359  0.43980065  0.24134695    -0.37800
N510        N  0.84891722  0.34877032  0.22009878    -0.39400
N511        N  0.88701683  0.56006974  0.07947709    -0.37200
N512        N  0.79386644  0.45237497  0.05889898    -0.39500
N513        N  0.95446720  0.30611122  0.18464159    -0.39300
N514        N  0.05556838  0.38063718  0.12400546    -0.36900
N515        N  0.88189712  0.39785547  0.98741167    -0.38000
N516        N  0.79891279  0.32585591  0.05290953    -0.39700
C517        C  0.43363793  0.18887669  0.40608814    -0.04600
C518        C  0.38994549  0.18118800  0.38854323     0.09600
C519        C  0.36072745  0.15317563  0.41103591    -0.02000
C520        C  0.38076124  0.11210364  0.42690627    -0.00200
C521        C  0.43097011  0.10762533  0.42719234    -0.03900
C522        C  0.45758010  0.14890341  0.41976226     0.03200
C523        C  0.39355938  0.16594675  0.34823324     0.10000
C524        C  0.31088002  0.16260993  0.41216191     0.35900
C525        C  0.50825267  0.14946343  0.42290377     0.39300
C526        C  0.37653077  0.12095231  0.33981676    -0.04200
C527        C  0.40892835  0.08352856  0.33967971     0.02900
C528        C  0.45821187  0.09377871  0.33923897    -0.03800
C529        C  0.47158603  0.14180108  0.33291763     0.00000
C530        C  0.43620673  0.17642222  0.33072705    -0.02600
C531        C  0.32638622  0.11265355  0.33758496     0.36600
C532        C  0.52023962  0.15719763  0.33352828     0.40300
C533        C  0.39080494  0.03630403  0.34450575     0.39400
C534        C  0.44624589  0.22475480  0.32135847     0.36300
C535        C  0.45531729  0.23471525  0.40487434     0.37000
C536        C  0.34981620  0.07468121  0.43929958     0.40200
N537        N  0.37570126  0.99890847  0.34897070    -0.37800
N538        N  0.28636898  0.10570099  0.33571584    -0.39400
N539        N  0.55894226  0.16978283  0.33390973    -0.37200
N540        N  0.45289468  0.26390769  0.31442762    -0.39500
N541        N  0.27101907  0.17037664  0.41329913    -0.39300
N542        N  0.32435178  0.04508974  0.44861272    -0.36900
N543        N  0.54890295  0.14876465  0.42378404    -0.38000
N544        N  0.47235811  0.27158437  0.40426276    -0.39700
C545        C  0.59556859  0.83922501  0.09680766    -0.04600
C546        C  0.63710680  0.84837242  0.11627037     0.09600
C547        C  0.66101636  0.88755196  0.10122417    -0.02000
C548        C  0.63436579  0.92828072  0.09341091    -0.00200
C549        C  0.58427747  0.92446636  0.09235925    -0.03900
C550        C  0.56525469  0.87782819  0.09001867     0.03200
C551        C  0.63282142  0.84597465  0.15850771     0.10000
C552        C  0.71178888  0.88769080  0.09979187     0.35900
C553        C  0.51551476  0.86880300  0.08530667     0.39300
C554        C  0.58650131  0.84614402  0.17225593    -0.04200
C555        C  0.56502732  0.89011729  0.17686692     0.02900
C556        C  0.59439349  0.93011643  0.18057634    -0.03800
C557        C  0.64393490  0.92205387  0.18453871     0.00000
C558        C  0.66188782  0.87691305  0.17774886    -0.02600
C559        C  0.56105515  0.80261695  0.17690637     0.36600
C560        C  0.67698494  0.95948514  0.19165000     0.40300
C561        C  0.51436416  0.89406392  0.17527336     0.39400
C562        C  0.71073483  0.86513077  0.18383368     0.36300
C563        C  0.58084701  0.79100787  0.09370731     0.37000
C564        C  0.65856198  0.97280988  0.08995612     0.40200
N565        N  0.47394760  0.89787674  0.17308867    -0.37800
N566        N  0.54142685  0.76741239  0.18132358    -0.39400
N567        N  0.70427454  0.98883545  0.19654617    -0.37200
N568        N  0.74976850  0.85563314  0.18893850    -0.39500
N569        N  0.75241882  0.88776377  0.09844687    -0.39300
N570        N  0.67834159  0.00825163  0.08807559    -0.36900
N571        N  0.47571553  0.86150559  0.08186756    -0.38000
N572        N  0.57109547  0.75174455  0.09194835    -0.39700
O573        O  0.72828580  0.16489187  0.96835007    -0.77600
C574        C  0.82117347  0.09637537  0.88907156     0.83400
O575        O  0.71165275  0.02323806  0.51149501    -0.78700
O576        O  0.87822284  0.99847170  0.97521957    -0.80200
O577        O  0.88793237  0.16594672  0.51472066    -0.80000
O578        O  0.76825027  0.19759386  0.51419372    -0.78600
Zn579      Zn  0.75658470  0.10326868  0.95562079     1.55700
O580        O  0.91901974  0.10779751  0.98214584    -0.80000
Cd581      Cd  0.81846587  0.14359170  0.52394562     1.59700
Cd582      Cd  0.78260937  0.03320968  0.52427411     1.59600
O583        O  0.81539586  0.12371145  0.58003382    -0.80000
O584        O  0.80466134  0.08727469  0.99237709    -1.90500
Cd585      Cd  0.86242036  0.06832318  0.96512475     1.59900
O586        O  0.78989707  0.04948602  0.58138687    -0.80000
O587        O  0.85473506  0.07857736  0.90805189    -0.78600
C588        C  0.68547077  0.03367590  0.98366014     0.83900
C589        C  0.73414274  0.19799473  0.99100402     0.83600
O590        O  0.78286921  0.10899155  0.90392603    -0.77600
C591        C  0.92299925  0.14576428  0.49979836     0.84400
O592        O  0.70066050  0.05805706  0.95628555    -0.77700
C593        C  0.80363507  0.08646433  0.59795283     0.84500
C594        C  0.85823851  0.96539554  0.49349047     0.84800
O595        O  0.82101522  0.97198146  0.51248566    -0.80100
O596        O  0.74153420  0.17585087  0.71453899    -0.77600
C597        C  0.80673357  0.08697663  0.63907610     0.83400
O598        O  0.73125907  0.03433206  0.78520584    -0.78700
O599        O  0.88567142  0.00986334  0.72160360    -0.80200
O600        O  0.89470990  0.17866081  0.76187139    -0.80000
O601        O  0.77536172  0.20538782  0.76469725    -0.78600
Zn602      Zn  0.76018347  0.10883053  0.71296844     1.55700
O603        O  0.92316987  0.12486375  0.72325319    -0.80000
Cd604      Cd  0.82709238  0.15468563  0.77429409     1.59700
Cd605      Cd  0.80194578  0.04531151  0.77927789     1.59600
O606        O  0.82261454  0.13756306  0.83108839    -0.80000
O607        O  0.81439770  0.09800540  0.74363077    -1.90500
Cd608      Cd  0.86716440  0.08018847  0.71085486     1.59900
O609        O  0.82429637  0.05948857  0.83195939    -0.80000
O610        O  0.84726291  0.08583429  0.65454202    -0.78600
C611        C  0.69771140  0.05227312  0.76664234     0.83900
C612        C  0.74456391  0.20720211  0.73900426     0.83600
O613        O  0.76924995  0.09116562  0.65817519    -0.77600
C614        C  0.92805408  0.16154120  0.74276690     0.84400
O615        O  0.70456576  0.07870696  0.73829291    -0.77700
C616        C  0.82418171  0.09825552  0.84858191     0.84500
C617        C  0.86738881  0.97740428  0.74186898     0.84800
O618        O  0.83325051  0.98468927  0.76352121    -0.80100
O619        O  0.58535803  0.26265954  0.90715502    -0.77600
C620        C  0.69689482  0.23421630  0.99144397     0.83400
O621        O  0.51859339  0.22547666  0.53723684    -0.78700
O622        O  0.63114493  0.31529410  0.57837464    -0.80200
O623        O  0.60946844  0.41753670  0.97454894    -0.80000
O624        O  0.58423216  0.34082075  0.90315533    -0.78600
Zn625      Zn  0.59474869  0.25019871  0.96405621     1.55700
O626        O  0.66483125  0.38961782  0.51328985    -0.80000
Cd627      Cd  0.57127683  0.35882303  0.95854576     1.59700
Cd628      Cd  0.53478675  0.29621117  0.52918848     1.59600
O629        O  0.50049166  0.37589372  0.96393826    -0.80000
O630        O  0.58735270  0.30565752  0.99287672    -1.90500
Cd631      Cd  0.64596189  0.31948319  0.52219496     1.59900
O632        O  0.47558884  0.33115942  0.51154938    -0.80000
O633        O  0.69943738  0.26988538  0.51223343    -0.78600
C634        C  0.53003382  0.19162552  0.01676491     0.83900
C635        C  0.58572426  0.30084750  0.88776496     0.83600
O636        O  0.66038441  0.22614477  0.97201272    -0.77600
C637        C  0.64484977  0.42351656  0.99579654     0.84400
O638        O  0.55528018  0.19790403  0.98790785    -0.77700
C639        C  0.46843101  0.36193187  0.98621589     0.84500
C640        C  0.59308751  0.32090484  0.59623417     0.84800
O641        O  0.55306175  0.32161015  0.58046047    -0.80100
O642        O  0.60959608  0.28385394  0.65259552    -0.77600
C643        C  0.70650500  0.24186082  0.73933944     0.83400
O644        O  0.52460818  0.21477371  0.75478341    -0.78700
O645        O  0.62650292  0.31388688  0.83069090    -0.84600
O646        O  0.62173425  0.41983373  0.72642218    -0.80000
O647        O  0.57943571  0.35561551  0.65461328    -0.78600
Zn648      Zn  0.61025633  0.25939697  0.70421652     1.55700
O649        O  0.67398330  0.38805663  0.76592476    -0.80000
Cd650      Cd  0.57666784  0.36559800  0.71192511     1.59700
Cd651      Cd  0.53949379  0.28322785  0.76988684     1.59600
O652        O  0.50833209  0.38493189  0.72402891    -0.80000
O653        O  0.59410091  0.30682326  0.74021255    -1.90500
Cd654      Cd  0.64859021  0.31966359  0.77486217     1.59900
O655        O  0.48078676  0.32424343  0.75752784    -0.80000
O656        O  0.70301939  0.27162834  0.76515615    -0.78600
C657        C  0.53782843  0.18785362  0.72897764     0.83900
C658        C  0.59476735  0.32087631  0.63659531     0.83600
O659        O  0.67452036  0.23687665  0.71508570    -0.77600
C660        C  0.65810586  0.42290708  0.74702644     0.84400
O661        O  0.56841573  0.20097509  0.70534360    -0.77700
C662        C  0.47499584  0.36352051  0.74076262     0.84500
C663        C  0.58879632  0.29943322  0.84652553     0.84800
O664        O  0.55344887  0.28535095  0.82770164    -0.80100
O665        O  0.54826686  0.11742160  0.54284662    -0.77600
C666        C  0.55330997  0.96726055  0.59380707     0.83400
O667        O  0.60774964  0.01052863  0.96184743    -0.78700
O668        O  0.52626889  0.90995447  0.51333749    -0.80200
O669        O  0.40158109  0.03106840  0.04545662    -0.80000
O670        O  0.47786086  0.12638128  0.01575469    -0.78600
Zn671      Zn  0.55925186  0.04664924  0.54493796     1.55700
O672        O  0.41835975  0.95878583  0.52810161    -0.80000
Cd673      Cd  0.45721311  0.05621517  0.01513947     1.59700
Cd674      Cd  0.53267295  0.00051158  0.96369908     1.59600
O675        O  0.43349621  0.04008428  0.96494819    -0.80000
O676        O  0.51334493  0.01703410  0.01576632    -1.90500
Cd677      Cd  0.48958773  0.96050565  0.53839758     1.59900
O678        O  0.49648780  0.05289067  0.93211831    -0.80000
O679        O  0.50909363  0.96316047  0.59158405    -0.78600
C680        C  0.63451632  0.02594505  0.98772226     0.83900
C681        C  0.51700889  0.14308862  0.02697387     0.83600
O682        O  0.57080896  0.00845228  0.59230019    -0.77600
C683        C  0.38857566  0.99098427  0.03425845     0.84400
O684        O  0.61829411  0.03876789  0.51851859    -0.77700
C685        C  0.45421516  0.06371301  0.94037024     0.84500
C686        C  0.51167518  0.89805027  0.98196887     0.84800
O687        O  0.50794024  0.92911463  0.95589096    -0.80100
O688        O  0.51393001  0.12366856  0.76381818    -0.77600
C689        C  0.49427940  0.05581835  0.84541120     0.83400
O690        O  0.63792075  0.00070513  0.78768206    -0.78700
O691        O  0.49065140  0.91334609  0.78974299    -0.80200
O692        O  0.42547982  0.02722930  0.71558686    -0.80000
O693        O  0.52270186  0.10967680  0.70461811    -0.78600
Zn694      Zn  0.54984706  0.07140524  0.78594857     1.55700
O695        O  0.41732474  0.99688148  0.77300533    -0.80000
Cd696      Cd  0.49983666  0.03798370  0.71329068     1.59700
Cd697      Cd  0.57995582  0.97883906  0.75958342     1.59600
O698        O  0.53185064  0.98828533  0.67860206    -0.80000
O699        O  0.52470876  0.01843212  0.76420690    -1.90500
Cd700      Cd  0.48066730  0.98418573  0.79567602     1.59900
O701        O  0.59556437  0.00312084  0.70889290    -0.80000
O702        O  0.48194380  0.01303206  0.84760904    -0.78600
C703        C  0.64946194  0.04206075  0.77734768     0.83900
C704        C  0.52268040  0.13836734  0.73150879     0.83600
O705        O  0.53743953  0.06423702  0.83969545    -0.77600
C706        C  0.40011112  0.01120340  0.74241899     0.84400
O707        O  0.61866730  0.07407197  0.77286805    -0.77700
C708        C  0.57404511  0.97729155  0.68700518     0.84500
C709        C  0.52089933  0.88995740  0.77192848     0.84800
O710        O  0.55894445  0.90824721  0.75947589    -0.80100
O711        O  0.46346282  0.83687322  0.95682705    -0.77600
C712        C  0.43965503  0.71859949  0.89053669     0.83400
O713        O  0.33047590  0.76112187  0.52040206    -0.78700
O714        O  0.41684618  0.61851723  0.97587333    -0.80200
O715        O  0.55281412  0.71391005  0.51671107    -0.80000
O716        O  0.50731101  0.82162064  0.50670428    -0.78600
Zn717      Zn  0.42122684  0.77786301  0.95711371     1.55700
O718        O  0.52836880  0.65576595  0.98093307    -0.80000
Cd719      Cd  0.49222182  0.75392323  0.52427834     1.59700
Cd720      Cd  0.38493336  0.71197225  0.52743812     1.59600
O721        O  0.47443382  0.75315636  0.58090950    -0.80000
O722        O  0.43927650  0.73006577  0.99381184    -1.90500
Cd723      Cd  0.46098069  0.67445247  0.96616484     1.59900
O724        O  0.40653326  0.71386345  0.58379566    -0.80000
O725        O  0.46063215  0.68700898  0.90956891    -0.78600
C726        C  0.32675267  0.79358473  0.99572337     0.83900
C727        C  0.49438925  0.84918137  0.98033081     0.83600
O728        O  0.41938085  0.75308910  0.90540582    -0.77600
C729        C  0.56018163  0.67594001  0.99966072     0.84400
O730        O  0.35773231  0.80009743  0.97077054    -0.77700
C731        C  0.44137621  0.73390500  0.59965285     0.84500
C732        C  0.37866974  0.61258319  0.99361666     0.84800
O733        O  0.36069237  0.64453108  0.51349819    -0.80100
O734        O  0.48009451  0.83593046  0.73536064    -0.77600
C735        C  0.44485721  0.73311772  0.64084056     0.83400
O736        O  0.33462511  0.76415795  0.76730981    -0.78700
O737        O  0.42606922  0.61960248  0.72713836    -0.80200
O738        O  0.56011523  0.70173456  0.76819561    -0.80000
O739        O  0.51962011  0.80828193  0.78441591    -0.78600
Zn740      Zn  0.43715542  0.78449005  0.71579280     1.55700
O741        O  0.53720905  0.65893627  0.72035354    -0.80000
Cd742      Cd  0.50084281  0.73865448  0.78183218     1.59700
Cd743      Cd  0.38846986  0.71384365  0.77553514     1.59600
O744        O  0.48166602  0.71995139  0.83497026    -0.80000
O745        O  0.44739879  0.72912707  0.74616217    -1.90500
Cd746      Cd  0.46617458  0.67714882  0.71316365     1.59900
O747        O  0.40330652  0.71716327  0.83177280    -0.80000
O748        O  0.45253426  0.69394643  0.65741973    -0.78600
C749        C  0.33697552  0.80150285  0.74730440     0.83900
C750        C  0.50776344  0.84184786  0.76282222     0.83600
O751        O  0.44111263  0.77115759  0.65895237    -0.77600
C752        C  0.56847879  0.67181174  0.74351673     0.84400
O753        O  0.37268038  0.81010254  0.72695183    -0.77700
C754        C  0.44151603  0.71750381  0.85024728     0.84500
C755        C  0.38891214  0.61252622  0.74600511     0.84800
O756        O  0.36863063  0.64466267  0.76426909    -0.80100
O757        O  0.26815166  0.94645116  0.91584283    -0.77600
C758        C  0.33979120  0.98271593  0.02375425     0.83400
O759        O  0.26085768  0.83119516  0.52416006    -0.78700
O760        O  0.21171727  0.97865238  0.58760416    -0.80200
O761        O  0.15040255  0.02694548  0.97702796    -0.80000
O762        O  0.19025533  0.95119093  0.91136671    -0.78600
Zn763      Zn  0.27595777  0.92863869  0.97096909     1.55700
O764        O  0.20445197  0.05249045  0.51702914    -0.80000
Cd765      Cd  0.17039834  0.95754957  0.96704484     1.59700
Cd766      Cd  0.20909201  0.88235423  0.53307493     1.59600
O767        O  0.11540688  0.91206296  0.97751596    -0.80000
O768        O  0.22223382  0.93935268  0.00113184    -1.90500
Cd769      Cd  0.23555667  0.99198670  0.53495570     1.59900
O770        O  0.14212699  0.85796502  0.51846135    -0.80000
O771        O  0.30671150  0.00180105  0.54143889    -0.78600
C772        C  0.28974213  0.82932863  0.99723094     0.83900
C773        C  0.23075099  0.94941334  0.89630663     0.83600
O774        O  0.33208473  0.95649719  0.99623792    -0.77600
C775        C  0.16904252  0.05935414  0.99619693     0.84400
O776        O  0.29202221  0.86152468  0.97250512    -0.77700
C777        C  0.11007322  0.87474606  0.99711419     0.84500
C778        C  0.21071271  0.94007714  0.60568984     0.84800
O779        O  0.21201709  0.90046899  0.58967971    -0.80100
O780        O  0.25140874  0.92866969  0.66171302    -0.77600
C781        C  0.34935232  0.00375708  0.73942681     0.83400
O782        O  0.26663461  0.83807594  0.77189451    -0.78700
O783        O  0.24877984  0.98551525  0.83785814    -0.80200
O784        O  0.15978033  0.04008712  0.73260484    -0.80000
O785        O  0.18126296  0.96240424  0.66442758    -0.78600
Zn786      Zn  0.27812767  0.93477068  0.71302035     1.55700
O787        O  0.21724324  0.06364882  0.77026859    -0.80000
Cd788      Cd  0.17478056  0.97118793  0.72166896     1.59700
Cd789      Cd  0.21686720  0.89279777  0.78248975     1.59600
O790        O  0.11798827  0.93254512  0.73821411    -0.80000
O791        O  0.23125694  0.94957788  0.74988934    -1.90500
Cd792      Cd  0.25469623  0.00206870  0.78103607     1.59900
O793        O  0.14611138  0.87330765  0.77334133    -0.80000
O794        O  0.32457725  0.01265768  0.76783174    -0.78600
C795        C  0.30040799  0.83859777  0.74837147     0.83900
C796        C  0.21369358  0.94261194  0.64619476     0.83600
O797        O  0.33316040  0.98066937  0.71239642    -0.77600
C798        C  0.17991740  0.07151075  0.75153362     0.84400
O799        O  0.30637499  0.87309111  0.72606036    -0.77700
C800        C  0.11227018  0.89468577  0.75675459     0.84500
C801        C  0.23394675  0.94903699  0.85534752     0.84800
O802        O  0.22094697  0.91214522  0.83847972    -0.80100
O803        O  0.97045639  0.69222854  0.53263197    -0.77600
C804        C  0.94049291  0.81734711  0.60146453     0.83400
O805        O  0.83311993  0.76838790  0.97423780    -0.78700
O806        O  0.92042159  0.91509540  0.51029209    -0.80200
O807        O  0.05719390  0.81482300  0.97897526    -0.80000
O808        O  0.00857279  0.70576104  0.97969648    -0.78600
Zn809      Zn  0.92789010  0.75188328  0.53564515     1.55700
O810        O  0.03093075  0.87356306  0.51334994    -0.80000
Cd811      Cd  0.99609842  0.77649730  0.96730259     1.59700
Cd812      Cd  0.88743600  0.81732194  0.96535956     1.59600
O813        O  0.98004603  0.78380303  0.91038386    -0.80000
O814        O  0.94288870  0.80006895  0.49827059    -1.90500
Cd815      Cd  0.96207026  0.85810860  0.52439117     1.59900
O816        O  0.90872797  0.81664955  0.90927686    -0.80000
O817        O  0.95666108  0.85040724  0.58109467    -0.78600
C818        C  0.83028430  0.73659352  0.49955561     0.83900
C819        C  0.99740546  0.67838495  0.50674157     0.83600
O820        O  0.92703549  0.77845790  0.58803442    -0.77600
C821        C  0.06378156  0.85265351  0.99662733     0.84400
O822        O  0.86291392  0.73004595  0.52339918    -0.77700
C823        C  0.94514256  0.80142343  0.89260017     0.84500
C824        C  0.88094275  0.91904056  0.49385503     0.84800
O825        O  0.86183070  0.88472690  0.97726109    -0.80100
O826        O  0.98214762  0.71331591  0.75071931    -0.77600
C827        C  0.94747048  0.80567287  0.85152544     0.83400
O828        O  0.83396887  0.77837516  0.72889207    -0.78700
O829        O  0.92264009  0.92401989  0.76501981    -0.80200
O830        O  0.05637510  0.84957154  0.72681428    -0.80000
O831        O  0.01833337  0.74783298  0.70247645    -0.78600
Zn832      Zn  0.94029619  0.76002711  0.77538122     1.55700
O833        O  0.03428458  0.88328240  0.77910073    -0.80000
Cd834      Cd  0.99790922  0.81482955  0.70988340     1.59700
Cd835      Cd  0.88759179  0.82747207  0.71613626     1.59600
O836        O  0.97806157  0.83601862  0.65737355    -0.80000
O837        O  0.94581533  0.81661556  0.74672386    -1.90500
Cd838      Cd  0.96208332  0.86678006  0.78172799     1.59900
O839        O  0.90283187  0.81503853  0.66026336    -0.80000
O840        O  0.94622174  0.84649652  0.83641079    -0.78600
C841        C  0.83784785  0.74156344  0.74938377     0.83900
C842        C  0.00777721  0.71190411  0.72176833     0.83600
O843        O  0.95073464  0.76890227  0.83193683    -0.77600
C844        C  0.06545115  0.87377803  0.75500494     0.84400
O845        O  0.87521111  0.73330828  0.76799988    -0.77700
C846        C  0.94009715  0.82350746  0.64172650     0.84500
C847        C  0.88805341  0.93064410  0.74292591     0.84800
O848        O  0.86966749  0.89803276  0.72364435    -0.80100
O849        O  0.76150749  0.59509543  0.58606923    -0.77600
C850        C  0.83608853  0.54132127  0.48885344     0.83400
O851        O  0.75945997  0.70166922  0.97565679    -0.78700
O852        O  0.72311745  0.55713494  0.91131025    -0.80200
O853        O  0.64810625  0.50078616  0.52040018    -0.80000
O854        O  0.68538124  0.57746636  0.58942300    -0.78600
Zn855      Zn  0.77253009  0.60501274  0.53143525     1.55700
O856        O  0.69904913  0.48027215  0.97672924    -0.80000
Cd857      Cd  0.66698175  0.57117686  0.53246946     1.59700
Cd858      Cd  0.70715984  0.64998776  0.96796223     1.59600
O859        O  0.61134882  0.61613200  0.52002472    -0.80000
O860        O  0.71986558  0.59229620  0.49974650    -1.90500
Cd861      Cd  0.73517220  0.54032648  0.96567423     1.59900
O862        O  0.63983295  0.67267734  0.98179924    -0.80000
O863        O  0.80454530  0.52490636  0.96804613    -0.78600
C864        C  0.79181586  0.70197351  0.50020349     0.83900
C865        C  0.72482608  0.58644696  0.60501464     0.83600
O866        O  0.82741457  0.56981351  0.51438205    -0.77600
C867        C  0.66506326  0.47071796  0.99815771     0.84400
O868        O  0.79568106  0.66933196  0.52431542    -0.77700
C869        C  0.60665371  0.65420245  0.00106992     0.84500
C870        C  0.71594367  0.59567400  0.89420376     0.84800
O871        O  0.70963444  0.63404784  0.91113954    -0.80100
O872        O  0.75735441  0.60780503  0.83867345    -0.77600
C873        C  0.85656736  0.54477248  0.75536350     0.83400
O874        O  0.76873973  0.70219432  0.72567740    -0.78700
O875        O  0.74420958  0.55252223  0.66381810    -0.80200
O876        O  0.66005268  0.50120188  0.76654065    -0.80000
O877        O  0.68462264  0.57883331  0.83497950    -0.78600
Zn878      Zn  0.78241104  0.60782143  0.78648578     1.55700
O879        O  0.72033979  0.47597980  0.73287864    -0.80000
Cd880      Cd  0.67610036  0.57060522  0.77795873     1.59700
Cd881      Cd  0.71847236  0.64758317  0.71745725     1.59600
O882        O  0.61921144  0.61103276  0.76181282    -0.80000
O883        O  0.73369854  0.59155431  0.75064472    -1.90500
Cd884      Cd  0.75652966  0.53832339  0.72030519     1.59900
O885        O  0.64952958  0.66996288  0.72765656    -0.80000
O886        O  0.82868911  0.53203770  0.72954653    -0.78600
C887        C  0.80126186  0.70436935  0.75024819     0.83900
C888        C  0.71880558  0.59518836  0.85372435     0.83600
O889        O  0.84206284  0.56811491  0.78269283    -0.77600
C890        C  0.68126706  0.46889075  0.74940532     0.84400
O891        O  0.80680484  0.67188014  0.77446475    -0.77700
C892        C  0.61487192  0.64958536  0.74376705     0.84500
C893        C  0.72871185  0.58830893  0.64584616     0.84800
O894        O  0.71833306  0.62644007  0.66191450    -0.80100
O895        O  0.10820722  0.25577608  0.58585118    -0.77600
C896        C  0.20423983  0.29244052  0.99520548     0.83400
O897        O  0.01984689  0.30757294  0.97686737    -0.78700
O898        O  0.12895748  0.21240298  0.91132656    -0.80200
O899        O  0.11190067  0.11131878  0.51681960    -0.80000
O900        O  0.08179399  0.18240075  0.58927781    -0.78600
Zn901      Zn  0.10967612  0.27173823  0.53178544     1.55700
O902        O  0.16751402  0.13917560  0.97797006    -0.80000
Cd903      Cd  0.07179212  0.16797364  0.53234459     1.59700
Cd904      Cd  0.03760092  0.23965927  0.96724939     1.59600
O905        O  0.00079470  0.15112067  0.52333832    -0.80000
O906        O  0.09215824  0.22173013  0.99965440    -1.90500
Cd907      Cd  0.14808188  0.20833566  0.96702539     1.59900
O908        O  0.97822581  0.20091616  0.97835229    -0.80000
O909        O  0.20318939  0.25838930  0.97277177    -0.78600
C910        C  0.03643869  0.33640784  0.99978020     0.83900
C911        C  0.09622342  0.21976060  0.60474806     0.83600
O912        O  0.17194542  0.29775529  0.51889278    -0.77600
C913        C  0.14795447  0.10576605  0.99642008     0.84400
O914        O  0.06858534  0.32583208  0.52275812    -0.77700
C915        C  0.96962938  0.16754683  0.00112801     0.84500
C916        C  0.09093014  0.22271264  0.89432561     0.84800
O917        O  0.05343117  0.23331095  0.91138181    -0.80100
O918        O  0.10535332  0.26200978  0.83761807    -0.77600
C919        C  0.20609569  0.30247182  0.74956943     0.83400
O920        O  0.04323215  0.32979136  0.71916461    -0.78700
O921        O  0.13499216  0.21351194  0.66316669    -0.80200
O922        O  0.11806834  0.12152173  0.76725897    -0.80000
O923        O  0.07688710  0.18925159  0.83557104    -0.78600
Zn924      Zn  0.11025642  0.28326897  0.78425746     1.55700
O925        O  0.17870769  0.15222883  0.73562994    -0.80000
Cd926      Cd  0.07469809  0.17765672  0.77845424     1.59700
Cd927      Cd  0.04589017  0.25661272  0.71576951     1.59600
O928        O  0.00659684  0.16108505  0.76286086    -0.80000
O929        O  0.09637196  0.23383564  0.74977719    -1.90500
Cd930      Cd  0.15316357  0.21779700  0.71948809     1.59900
O931        O  0.98244814  0.22248851  0.72833127    -0.80000
O932        O  0.20444603  0.26987365  0.72587761    -0.78600
C933        C  0.05297597  0.35711787  0.74570382     0.83900
C934        C  0.09099151  0.22458069  0.85370346     0.83600
O935        O  0.17444175  0.30733232  0.77394723    -0.77600
C936        C  0.15817980  0.11782348  0.75194363     0.84400
O937        O  0.07150473  0.34195020  0.77568899    -0.77700
C938        C  0.97476818  0.18316050  0.74478845     0.84500
C939        C  0.09732393  0.22345088  0.64536971     0.84800
O940        O  0.06122468  0.23991836  0.66131256    -0.80100
O941        O  0.23435051  0.36342550  0.51602695    -0.77600
C942        C  0.32136675  0.43924857  0.59477442     0.83400
O943        O  0.21117889  0.50798772  0.96914313    -0.78700
O944        O  0.37815602  0.53256484  0.50875657    -0.80200
O945        O  0.38835369  0.36600431  0.96819223    -0.80000
O946        O  0.27116081  0.33283755  0.96794390    -0.78600
Zn947      Zn  0.25858685  0.42725578  0.52718126     1.55700
O948        O  0.41874270  0.42240149  0.50335683    -0.80000
Cd949      Cd  0.31955882  0.38851918  0.95802203     1.59700
Cd950      Cd  0.28259186  0.49830777  0.95935477     1.59600
O951        O  0.31633570  0.41010781  0.90206607    -0.80000
O952        O  0.30553284  0.44383925  0.99057658    -1.90500
Cd953      Cd  0.36282488  0.46301343  0.51849763     1.59900
O954        O  0.29081872  0.48418907  0.90270653    -0.80000
O955        O  0.35525620  0.45553530  0.57551540    -0.78600
C956        C  0.18583904  0.49609867  0.99688526     0.83900
C957        C  0.23965803  0.33053966  0.99310223     0.83600
O958        O  0.28319468  0.42575239  0.57989386    -0.77600
C959        C  0.42273353  0.38483654  0.98525006     0.84400
O960        O  0.20163771  0.47026208  0.52329371    -0.77700
C961        C  0.30441477  0.44813989  0.88523142     0.84500
C962        C  0.35688850  0.56603896  0.99215614     0.84800
O963        O  0.31936344  0.55974316  0.97328633    -0.80100
O964        O  0.23303731  0.37710680  0.76449028    -0.77600
C965        C  0.30719660  0.45050151  0.84427751     0.83400
O966        O  0.23601896  0.51361283  0.69338534    -0.78700
O967        O  0.38211160  0.53400461  0.76760640    -0.80200
O968        O  0.39482179  0.36673743  0.72329215    -0.80000
O969        O  0.27681122  0.33652659  0.72539217    -0.78600
Zn970      Zn  0.25770643  0.44237592  0.76924590     1.55700
O971        O  0.42362081  0.42249900  0.76006278    -0.80000
Cd972      Cd  0.32606948  0.38831924  0.71152927     1.59700
Cd973      Cd  0.30592492  0.49792760  0.70176632     1.59600
O974        O  0.31872700  0.40197819  0.65433141    -0.80000
O975        O  0.31350870  0.44687589  0.73966948    -1.90500
Cd976      Cd  0.36593855  0.46279841  0.77364220     1.59900
O977        O  0.32972209  0.47927647  0.65043926    -0.80000
O978        O  0.34753041  0.44958075  0.82895473    -0.78600
C979        C  0.20216529  0.50699352  0.71566782     0.83900
C980        C  0.24152611  0.33986655  0.74685616     0.83600
O981        O  0.26946199  0.45280962  0.82500621    -0.77600
C982        C  0.42854722  0.38537087  0.74136844     0.84400
O983        O  0.20712739  0.48441943  0.74637477    -0.77700
C984        C  0.32443803  0.43978058  0.63530456     0.84500
C985        C  0.36834893  0.56573452  0.74463356     0.84800
O986        O  0.33962434  0.55757019  0.71849288    -0.80100
O987        O  0.05472627  0.41532382  0.00161653    -0.77600
C988        C  0.97117538  0.46292013  0.91700251     0.83400
O989        O  0.11272572  0.51563509  0.52567767    -0.78700
O990        O  0.01295671  0.61232288  0.97129504    -0.80200
O991        O  0.89514321  0.48921023  0.47051306    -0.80000
O992        O  0.98202266  0.39663852  0.48572467    -0.78600
Zn993      Zn  0.05017136  0.47003995  0.96869865     1.55700
O994        O  0.91598864  0.55947857  0.98880956    -0.80000
Cd995      Cd  0.95805168  0.46552178  0.49203198     1.59700
Cd996      Cd  0.03935173  0.52671799  0.53633574     1.59600
O997        O  0.94305973  0.47572144  0.54327058    -0.80000
O998        O  0.01171155  0.50874305  0.99068285    -1.90500
Cd999      Cd  0.97819517  0.55118164  0.96262646     1.59900
O1000       O  0.01186198  0.46640558  0.56829796    -0.80000
O1001       O  0.95917924  0.50587708  0.92112269    -0.78600
C1002       C  0.13508438  0.50574204  0.99585937     0.83900
C1003       C  0.02299249  0.38488510  0.99661015     0.83600
O1004       O  0.01095831  0.44739482  0.92796541    -0.77600
C1005       C  0.88435835  0.52924578  0.48241959     0.84400
O1006       O  0.11367287  0.49746111  0.96558870    -0.77700
C1007       C  0.97058030  0.45026655  0.56139065     0.84500
C1008       C  0.01091768  0.62805173  0.50420627     0.84800
O1009       O  0.01585640  0.60052658  0.53316680    -0.80100
O1010       O  0.00596133  0.47632860  0.65076674    -0.77600
C1011       C  0.15565536  0.52568715  0.70677601     0.83400
O1012       O  0.02655136  0.43231617  0.76515467    -0.78700
O1013       O  0.06791042  0.60434827  0.78828268    -0.80200
O1014       O  0.98617608  0.63889084  0.70237524    -0.80000
O1015       O  0.97091482  0.54455689  0.64274070    -0.78600
Zn1016     Zn  0.05854795  0.49080675  0.68716905     1.55700
O1017       O  0.06285935  0.65267131  0.70876271    -0.80000
Cd1018     Cd  0.98022468  0.56963956  0.69337602     1.59700
Cd1019     Cd  0.01172807  0.50485359  0.76316013     1.59600
O1020       O  0.91902436  0.55336963  0.71615916    -0.80000
O1021       O  0.03172464  0.53706351  0.71788951    -1.90500
Cd1022     Cd  0.07659850  0.58866821  0.73282092     1.59900
O1023       O  0.93824262  0.52598795  0.77220304    -0.80000
O1024       O  0.14106463  0.55872506  0.72694818    -0.78600
C1025       C  0.04579648  0.40788602  0.74034195     0.83900
C1026       C  0.96866349  0.50018087  0.64497525     0.83600
O1027       O  0.12956377  0.50487584  0.68296016    -0.77600
C1028       C  0.02031049  0.66617215  0.70884892     0.84400
O1029       O  0.05990547  0.42662770  0.71031014    -0.77700
C1030       C  0.90745163  0.54038743  0.74836541     0.84500
C1031       C  0.06736868  0.56695384  0.80737337     0.84800
O1032       O  0.06978877  0.52878890  0.79062776    -0.80100
C1033       C  0.90744660  0.45965862  0.83998048    -0.04600
C1034       C  0.95410998  0.45393430  0.82792201     0.09600
C1035       C  0.96687286  0.40757846  0.83803895    -0.02000
C1036       C  0.96269224  0.39687688  0.87621740    -0.00200
C1037       C  0.93917849  0.43047514  0.89750448    -0.03900
C1038       C  0.90105640  0.45183387  0.87843926     0.03200
C1039       C  0.98833254  0.49293632  0.84044792     0.10000
C1040       C  0.96505978  0.37050525  0.81153399     0.35900
C1041       C  0.85545182  0.45420236  0.89548373     0.39300
C1042       C  0.03642984  0.48324592  0.85175230    -0.04200
C1043       C  0.06566637  0.52109497  0.86225440     0.02900
C1044       C  0.05408321  0.56470768  0.84670463    -0.03800
C1045       C  0.00714159  0.57650498  0.85059905     0.00000
C1046       C  0.97313579  0.54093985  0.84556193    -0.02600
C1047       C  0.05852880  0.43770329  0.84933143     0.36600
C1048       C  0.99476937  0.62547319  0.85302770     0.40300
C1049       C  0.11365476  0.51392651  0.87452424     0.39400
C1050       C  0.92434559  0.55494471  0.84820978     0.36300
C1051       C  0.86880771  0.45435770  0.81445382     0.37000
C1052       C  0.97617655  0.35213632  0.89187897     0.40200
N1053       N  0.15206342  0.50834760  0.88419989    -0.37800
N1054       N  0.07723781  0.40185543  0.84744824    -0.39400
N1055       N  0.98486425  0.66465169  0.85499825    -0.37200
N1056       N  0.88593316  0.56706806  0.85189046    -0.39500
N1057       N  0.96229730  0.34022828  0.79082679    -0.39300
N1058       N  0.98690596  0.31569743  0.90356157    -0.36900
N1059       N  0.81852655  0.45572070  0.90868701    -0.38000
N1060       N  0.83780526  0.44870968  0.79420995    -0.39700
C1061       C  0.87845221  0.35824284  0.57763925    -0.04600
C1062       C  0.88518450  0.36129954  0.61554722     0.09600
C1063       C  0.93310200  0.35496796  0.62558884    -0.02000
C1064       C  0.96738836  0.37963387  0.60467259    -0.00200
C1065       C  0.95227087  0.40260289  0.57198830    -0.03900
C1066       C  0.90992648  0.38439821  0.55528077     0.03200
C1067       C  0.86081523  0.40275208  0.63288550     0.10000
C1068       C  0.94523183  0.32806653  0.65840636     0.35900
C1069       C  0.89566200  0.39371521  0.51746419     0.39300
C1070       C  0.87389435  0.41013154  0.66936870    -0.04200
C1071       C  0.91000609  0.44314717  0.67504165     0.02900
C1072       C  0.92210213  0.47568215  0.64614302    -0.03800
C1073       C  0.88851388  0.48197896  0.61782892     0.00000
C1074       C  0.85621880  0.44508565  0.61154326    -0.02600
C1075       C  0.85988724  0.37617100  0.69760356     0.36600
C1076       C  0.88744894  0.52507937  0.59614694     0.40300
C1077       C  0.93133826  0.44330695  0.71081611     0.39400
C1078       C  0.82152440  0.44897629  0.58231415     0.36300
C1079       C  0.83421979  0.34027567  0.56391930     0.37000
C1080       C  0.01622744  0.38049720  0.61568928     0.40200
N1081       N  0.94255017  0.43979070  0.74133474    -0.37800
N1082       N  0.84881342  0.34890112  0.72010946    -0.39400
N1083       N  0.88711279  0.56012376  0.57945102    -0.37200
N1084       N  0.79393909  0.45246488  0.55884466    -0.39500
N1085       N  0.95439505  0.30622215  0.68471473    -0.39300
N1086       N  0.05553359  0.38062507  0.62402521    -0.36900
N1087       N  0.88189275  0.39779156  0.48741410    -0.38000
N1088       N  0.79885042  0.32590460  0.55295627    -0.39700
C1089       C  0.43359653  0.18884099  0.90602629    -0.04600
C1090       C  0.38990160  0.18113783  0.88848785     0.09600
C1091       C  0.36069728  0.15311043  0.91098004    -0.02000
C1092       C  0.38074680  0.11204071  0.92683927    -0.00200
C1093       C  0.43095717  0.10758995  0.92713942    -0.03900
C1094       C  0.45754990  0.14887911  0.91971112     0.03200
C1095       C  0.39350177  0.16591498  0.84817214     0.10000
C1096       C  0.31084764  0.16253032  0.91211781     0.35900
C1097       C  0.50822070  0.14946216  0.92287037     0.39300
C1098       C  0.37647421  0.12092176  0.83975029    -0.04200
C1099       C  0.40887321  0.08349824  0.83961839     0.02900
C1100       C  0.45815692  0.09375122  0.83918961    -0.03800
C1101       C  0.47152976  0.14177339  0.83286723     0.00000
C1102       C  0.43614733  0.17638965  0.83066367    -0.02600
C1103       C  0.32632963  0.11262247  0.83751901     0.36600
C1104       C  0.52018115  0.15717579  0.83349298     0.40300
C1105       C  0.39075028  0.03627265  0.84443691     0.39400
C1106       C  0.44618307  0.22471920  0.82128450     0.36300
C1107       C  0.45527395  0.23468048  0.90478832     0.37000
C1108       C  0.34981811  0.07458506  0.93919478     0.40200
N1109       N  0.37564608  0.99887598  0.84889458    -0.37800
N1110       N  0.28631224  0.10566999  0.83565245    -0.39400
N1111       N  0.55888197  0.16976562  0.83388516    -0.37200
N1112       N  0.45283374  0.26386966  0.81434609    -0.39500
N1113       N  0.27098548  0.17028750  0.91326696    -0.39300
N1114       N  0.32436948  0.04496276  0.94847261    -0.36900
N1115       N  0.54887079  0.14878289  0.92376517    -0.38000
N1116       N  0.47231731  0.27154848  0.90415464    -0.39700
C1117       C  0.59554089  0.83921810  0.59676497    -0.04600
C1118       C  0.63707831  0.84835928  0.61623005     0.09600
C1119       C  0.66098186  0.88755438  0.60120360    -0.02000
C1120       C  0.63432464  0.92828156  0.59340156    -0.00200
C1121       C  0.58423735  0.92445996  0.59234785    -0.03900
C1122       C  0.56522069  0.87782056  0.58999302     0.03200
C1123       C  0.63279836  0.84591893  0.65846650     0.10000
C1124       C  0.71175466  0.88770570  0.59977711     0.35900
C1125       C  0.51548035  0.86879083  0.58528709     0.39300
C1126       C  0.58647983  0.84608769  0.67221728    -0.04200
C1127       C  0.56501424  0.89006158  0.67684535     0.02900
C1128       C  0.59438945  0.93005166  0.68057185    -0.03800
C1129       C  0.64392786  0.92197040  0.68454332     0.00000
C1130       C  0.66187103  0.87683269  0.67772513    -0.02600
C1131       C  0.56103191  0.80256134  0.67686298     0.36600
C1132       C  0.67698555  0.95937632  0.69170930     0.40300
C1133       C  0.51435182  0.89401753  0.67525479     0.39400
C1134       C  0.71071243  0.86502800  0.68381039     0.36300
C1135       C  0.58082418  0.79100107  0.59365357     0.37000
C1136       C  0.65851322  0.97281618  0.58995969     0.40200
N1137       N  0.47393571  0.89783668  0.67307274    -0.37800
N1138       N  0.54140512  0.76735555  0.68127752    -0.39400
N1139       N  0.70428456  0.98870355  0.69665488    -0.37200
N1140       N  0.74974115  0.85551088  0.68891593    -0.39500
N1141       N  0.75238482  0.88778973  0.59843596    -0.39300
N1142       N  0.67828630  0.00826214  0.58808839    -0.36900
N1143       N  0.47568122  0.86148950  0.58185226    -0.38000
N1144       N  0.57107955  0.75173687  0.59188733    -0.39700
loop_ 
_geom_bond_atom_site_label_1 
_geom_bond_atom_site_label_2 
_geom_bond_distance 
_geom_bond_site_symmetry_2 
_ccdc_geom_bond_type 
O1           C17   1.273       .  A
O1           Zn7   1.999       .  S
C2           O18   1.273       .  A
C2           O15   1.275       .  A
C2           C44   1.466       .  S
O3          C588   1.280   1_554  A
O3          Cd10   2.090       .  S
O4          C594   1.274       .  A
O4          Cd13   2.070   1_565  S
O5           C19   1.280   1_554  A
O5           Cd9   2.101       .  S
O6          C589   1.281   1_554  A
O6           Cd9   2.128       .  S
Zn7          O18   2.018       .  S
Zn7          O20   2.046       .  S
Zn7          O12   1.952       .  S
O8          C591   1.273       .  A
O8          Cd13   2.062       .  S
Cd9          O11   2.096       .  S
Cd9         O584   2.027   1_554  S
Cd10         O14   2.134       .  S
Cd10         O23   2.115   1_545  S
Cd10        O584   2.007   1_554  S
O11          C21   1.278       .  A
O12         Cd13   2.000       .  S
O12        Cd581   2.027       .  S
O12        Cd582   2.007       .  S
Cd13         O15   2.088       .  S
O14          C21   1.283       .  A
C16          O20   1.274       .  A
C16         O575   1.280       .  A
C16         C108   1.473       .  S
C17         O578   1.281       .  A
C17          C48   1.483       .  S
C19         O580   1.273       .  A
C19         C915   1.464   1_556  S
C21          C25   1.489       .  S
C22          O23   1.280   1_556  A
C22         O576   1.274       .  A
C22         C252   1.474       .  S
O24          C40   1.273       .  A
O24         Zn30   1.989       .  S
C25          O41   1.280       .  A
C25          O38   1.280       .  A
O26          C39   1.268       .  A
O26         Cd33   2.046       .  S
O27          C45   1.279   1_545  A
O27         Cd36   2.105       .  S
O28          C42   1.279       .  A
O28         Cd32   2.087       .  S
O29          C40   1.275       .  A
O29         Cd32   2.091       .  S
Zn30         O41   2.070       .  S
Zn30         O43   2.012       .  S
Zn30         O35   1.919       .  S
O31          C42   1.281       .  A
O31         Cd36   2.091       .  S
Cd32         O34   2.104       .  S
Cd32         O35   2.011       .  S
Cd33         O37   2.053       .  S
Cd33         O46   2.041   1_545  S
Cd33         O35   1.992       .  S
O34          C44   1.277       .  A
O35         Cd36   1.989       .  S
Cd36         O38   2.114       .  S
O37          C44   1.270       .  A
C39          O43   1.275       .  A
C39         C131   1.455       .  S
C40          C71   1.469       .  S
C42         C366   1.466       .  S
C45          O46   1.270       .  A
C45         C275   1.460       .  S
O47          C63   1.284       .  A
O47         Zn53   2.096       .  S
C48          O64   1.275       .  A
C48         O633   1.279       .  A
O49         C634   1.272       .  A
O49         Cd56   2.084       .  S
O50          C68   1.275       .  A
O50         Cd59   2.076       .  S
O51          C65   1.277       .  A
O51         Cd55   2.085       .  S
O52          C63   1.280       .  A
O52         Cd55   2.110       .  S
Zn53         O64   2.010       .  S
Zn53         O66   2.043       .  S
Zn53         O58   1.925       .  S
O54         C637   1.279   1_554  A
O54         Cd59   2.090       .  S
Cd55         O57   2.084       .  S
Cd55         O58   1.994       .  S
Cd56         O60   2.053       .  S
Cd56         O69   2.068       .  S
Cd56        O630   2.006   1_554  S
O57          C67   1.276       .  A
O58        Cd628   2.006       .  S
O58        Cd631   2.016       .  S
Cd59         O61   2.118       .  S
Cd59        O630   2.016   1_554  S
O60         C639   1.272   1_554  A
O61         C620   1.279   1_554  A
C62          O66   1.278       .  A
C62         O621   1.272       .  A
C62         C109   1.473       .  S
C63          C91   1.494       .  S
C65         O626   1.279       .  A
C65         C295   1.467       .  S
C67         O632   1.272       .  A
C67         C387   1.457       .  S
C68          O69   1.272       .  A
C68          C86   1.459       .  S
O70          C86   1.267       .  A
O70         Zn76   1.979       .  S
C71          O87   1.271       .  A
C71          O84   1.279       .  A
O72          C85   1.279       .  A
O72         Cd79   2.081       .  S
O73          C91   1.281       .  A
O73         Cd82   2.118       .  S
O74          C88   1.277       .  A
O74         Cd78   2.081       .  S
O75          C86   1.276       .  A
O75         Cd78   2.098       .  S
Zn76         O87   1.976       .  S
Zn76         O89   2.046       .  S
Zn76         O81   1.953       .  S
O77          C88   1.278       .  A
O77         Cd82   2.099       .  S
Cd78         O80   2.073       .  S
Cd78         O81   2.009       .  S
Cd79         O83   2.085       .  S
Cd79         O92   2.127       .  S
Cd79         O81   1.998       .  S
O80          C90   1.274       .  A
O81         Cd82   2.027       .  S
Cd82         O84   2.107       .  S
O83          C90   1.274       .  A
C85          O89   1.272       .  A
C85         C132   1.477       .  S
C88         C318   1.471       .  S
C90         C410   1.464       .  S
C91          O92   1.281       .  A
O93         C681   1.281       .  A
O93         Zn99   2.045       .  S
C94         O110   1.276   1_565  A
C94         O107   1.266       .  A
C94         C549   1.510       .  S
O95         C108   1.288       .  A
O95        Cd102   2.156       .  S
O96         C686   1.259   1_554  A
O96        Cd105   2.015       .  S
O97         C111   1.275   1_545  A
O97        Cd101   2.048       .  S
O98         C109   1.279       .  A
O98        Cd101   2.086       .  S
Zn99        O110   2.037       .  S
Zn99        O112   1.951       .  S
Zn99        O676   1.885       .  S
O100        C683   1.275       .  A
O100       Cd105   2.060       .  S
Cd101       O103   1.995       .  S
Cd101       O104   1.953       .  S
Cd102       O106   2.128       .  S
Cd102       O115   2.177   1_545  S
Cd102       O104   2.027       .  S
O103        C113   1.252       .  A
O104       Zn671   1.885       .  S
O104       Cd677   1.916   1_545  S
Cd105       O107   2.002       .  S
Cd105       O676   1.916   1_565  S
O106        C113   1.280       .  A
C108        O684   1.267       .  A
C109        O665   1.281       .  A
C111        O672   1.275       .  A
C111        C186   1.458       .  S
O112        C680   1.267   1_554  A
C113        C521   1.488       .  S
C114        O115   1.285       .  A
C114        O668   1.259       .  A
C114        C155   1.480       .  S
O116        C132   1.258       .  A
O116       Zn122   1.966       .  S
C117        O133   1.268       .  A
C117        O130   1.271       .  A
C117        C528   1.508       .  S
O118        C131   1.273       .  A
O118       Cd125   2.037   1_545  S
O119        C137   1.275       .  A
O119       Cd128   2.058       .  S
O120        C134   1.286       .  A
O120       Cd124   2.139       .  S
O121        C132   1.283       .  A
O121       Cd124   2.162       .  S
Zn122       O133   1.982       .  S
Zn122       O135   2.017       .  S
Zn122       O127   1.858       .  S
O123        C134   1.268   1_565  A
O123       Cd128   2.009       .  S
Cd124       O126   2.122   1_545  S
Cd124       O127   2.037       .  S
Cd125       O129   1.996   1_565  S
Cd125       O138   2.100       .  S
Cd125       O127   1.949   1_565  S
O126        C136   1.276       .  A
O127       Cd128   1.943   1_545  S
Cd128       O130   2.065   1_565  S
O129        C136   1.250   1_545  A
C131        O135   1.275       .  A
C134        C209   1.463       .  S
C136        C556   1.492       .  S
C137        O138   1.279       .  A
C137        C178   1.466       .  S
O139        C155   1.275       .  A
O139       Zn145   2.066       .  S
C140        O156   1.272       .  A
C140        O153   1.272       .  A
C140        C182   1.458       .  S
O141        C726   1.278   1_554  A
O141       Cd148   2.105       .  S
O142        C160   1.272       .  A
O142       Cd151   2.053       .  S
O143        C729   1.276   1_554  A
O143       Cd147   2.093       .  S
O144        C727   1.277   1_554  A
O144       Cd147   2.066       .  S
Zn145       O156   2.012       .  S
Zn145       O158   1.984       .  S
Zn145       O150   1.952       .  S
O146        C157   1.272       .  A
O146       Cd151   2.058       .  S
Cd147       O149   2.109       .  S
Cd147       O722   1.990   1_554  S
Cd148       O152   2.127       .  S
Cd148       O161   2.113       .  S
Cd148       O722   2.028   1_554  S
O149        C159   1.277       .  A
O150       Cd151   1.993       .  S
O150       Cd719   1.990       .  S
O150       Cd720   2.028       .  S
Cd151       O153   2.069       .  S
O152        C159   1.283       .  A
C154        O158   1.274       .  A
C154        O713   1.278       .  A
C154        C200   1.470       .  S
C155        O716   1.277       .  A
C157        O715   1.276       .  A
C157        C297   1.463       .  S
C159        C163   1.491       .  S
C160        O733   1.281       .  A
C160        C390   1.466       .  S
O161        C732   1.281   1_554  A
O162        C178   1.278       .  A
O162       Zn168   2.043       .  S
C163        O179   1.284       .  A
C163        O176   1.277       .  A
O164        C177   1.277       .  A
O164       Cd171   2.119       .  S
O165        C183   1.273       .  A
O165       Cd174   2.053       .  S
O166        C180   1.271       .  A
O166       Cd170   2.058       .  S
O167        C178   1.269       .  A
O167       Cd170   2.060       .  S
Zn168       O179   2.100       .  S
Zn168       O181   2.022       .  S
Zn168       O173   1.928       .  S
O169        C180   1.278       .  A
O169       Cd174   2.103       .  S
Cd170       O172   2.057       .  S
Cd170       O173   2.012       .  S
Cd171       O175   2.078       .  S
Cd171       O184   2.100       .  S
Cd171       O173   2.029       .  S
O172        C182   1.272       .  A
O173       Cd174   1.997       .  S
Cd174       O176   2.096       .  S
O175        C182   1.274       .  A
C177        O181   1.276       .  A
C177        C223   1.488       .  S
C180        C320   1.466       .  S
C183        O184   1.281       .  A
C183        C413   1.458       .  S
O185        C201   1.277       .  A
O185       Zn191   2.057       .  S
C186        O202   1.275       .  A
C186        O771   1.270   1_565  A
O187        C772   1.278   1_554  A
O187       Cd194   2.108       .  S
O188        C206   1.269       .  A
O188       Cd197   2.050       .  S
O189        C203   1.280       .  A
O189       Cd193   2.101   1_545  S
O190        C201   1.278       .  A
O190       Cd193   2.103       .  S
Zn191       O202   2.007       .  S
Zn191       O204   1.970       .  S
Zn191       O196   1.909       .  S
O192        C775   1.269   1_554  A
O192       Cd197   2.036   1_545  S
Cd193       O195   2.061       .  S
Cd193       O196   1.982       .  S
Cd194       O198   2.096       .  S
Cd194       O207   2.121       .  S
Cd194       O768   2.010       .  S
O195        C205   1.276       .  A
O196       Cd766   2.010       .  S
O196       Cd769   1.991       .  S
Cd197       O199   2.057   1_565  S
Cd197       O768   1.991       .  S
O198        C777   1.281   1_554  A
O199        C758   1.270   1_545  A
C200        O204   1.270       .  A
C200        O759   1.278       .  A
C201        C229   1.483       .  S
C203        O764   1.269       .  A
C203        C341   1.456       .  S
C205        O770   1.281       .  A
C205        C249   1.459       .  S
C206        O207   1.281       .  A
C206        C224   1.469       .  S
O208        C224   1.271       .  A
O208       Zn214   2.012       .  S
C209        O225   1.274   1_545  A
C209        O222   1.277       .  A
O210        C223   1.285       .  A
O210       Cd217   2.152       .  S
O211        C229   1.278       .  A
O211       Cd220   2.105   1_565  S
O212        C226   1.273       .  A
O212       Cd216   2.060   1_545  S
O213        C224   1.276       .  A
O213       Cd216   2.098       .  S
Zn214       O225   2.038       .  S
Zn214       O227   1.985       .  S
Zn214       O219   1.942       .  S
O215        C226   1.276       .  A
O215       Cd220   2.087       .  S
Cd216       O218   2.038       .  S
Cd216       O219   1.993       .  S
Cd217       O221   2.114       .  S
Cd217       O230   2.111       .  S
Cd217       O219   2.026       .  S
O218        C228   1.270       .  A
O219       Cd220   2.004   1_565  S
Cd220       O222   2.066       .  S
O221        C228   1.282       .  A
C223        O227   1.271       .  A
C226        C364   1.462       .  S
C228        C272   1.460       .  S
C229        O230   1.280       .  A
O231        C247   1.281       .  A
O231       Zn237   2.097       .  S
C232        O248   1.278       .  A
C232        O245   1.271       .  A
C232        C274   1.469       .  S
O233        C818   1.278       .  A
O233       Cd240   2.101       .  S
O234        C252   1.273   1_554  A
O234       Cd243   2.070       .  S
O235        C249   1.278       .  A
O235       Cd239   2.098   1_455  S
O236        C819   1.279   1_455  A
O236       Cd239   2.090   1_455  S
Zn237       O248   2.054       .  S
Zn237       O250   2.001       .  S
Zn237       O242   1.955   1_554  S
O238        C821   1.271   1_554  A
O238       Cd243   2.046   1_455  S
Cd239       O241   2.112       .  S
Cd239       O814   2.011       .  S
Cd240       O244   2.118       .  S
Cd240       O253   2.112       .  S
Cd240       O814   2.029       .  S
O241        C251   1.280       .  A
O242       Cd243   1.997   1_556  S
O242       Cd811   2.011       .  S
O242       Cd812   2.029       .  S
Cd243       O245   2.063       .  S
O244        C251   1.282       .  A
C246        O250   1.276   1_556  A
C246        O805   1.278       .  A
C246        C292   1.472   1_556  S
C247        O808   1.279   1_654  A
C247        C436   1.493   1_655  S
C249        O810   1.271       .  A
C251        C255   1.488       .  S
C252        O825   1.279       .  A
O253        C824   1.279       .  A
O254        C270   1.279   1_655  A
O254       Zn260   2.014       .  S
C255        O271   1.282       .  A
C255        O268   1.277       .  A
O256        C269   1.278       .  A
O256       Cd263   2.114       .  S
O257        C275   1.277       .  A
O257       Cd266   2.064       .  S
O258        C272   1.268       .  A
O258       Cd262   2.033   1_455  S
O259        C270   1.264       .  A
O259       Cd262   2.024   1_455  S
Zn260       O271   2.085       .  S
Zn260       O273   2.020       .  S
Zn260       O265   1.907       .  S
O261        C272   1.278       .  A
O261       Cd266   2.108   1_455  S
Cd262       O264   2.058       .  S
Cd262       O265   1.997       .  S
Cd263       O267   2.104       .  S
Cd263       O276   2.102       .  S
Cd263       O265   2.010       .  S
O264        C274   1.271       .  A
O265       Cd266   1.983       .  S
Cd266       O268   2.098       .  S
O267        C274   1.276       .  A
C269        O273   1.276       .  A
C269        C315   1.485       .  S
C270        C456   1.441       .  S
C275        O276   1.283       .  A
O277        C293   1.271       .  A
O277       Zn283   2.014       .  S
C278        O294   1.268   1_556  A
C278        O863   1.265       .  A
C278        C433   1.438       .  S
O279        C864   1.277       .  A
O279       Cd286   2.114       .  S
O280        C298   1.268       .  A
O280       Cd289   2.041       .  S
O281        C867   1.283   1_554  A
O281       Cd285   2.131       .  S
O282        C293   1.282       .  A
O282       Cd285   2.133       .  S
Zn283       O294   1.967       .  S
Zn283       O296   1.961       .  S
Zn283       O288   1.921   1_554  S
O284        C295   1.266       .  A
O284       Cd289   2.029       .  S
Cd285       O287   2.083       .  S
Cd285       O288   2.001   1_554  S
Cd286       O290   2.090       .  S
Cd286       O299   2.114       .  S
Cd286       O860   2.021       .  S
O287        C869   1.280       .  A
O288       Cd858   2.021       .  S
O288       Cd861   1.997       .  S
Cd289       O291   2.025       .  S
Cd289       O860   1.997       .  S
O290        C297   1.281       .  A
O291        C850   1.265       .  A
C292        O296   1.267       .  A
C292        O851   1.277   1_554  A
C293        C321   1.481       .  S
C295        O853   1.283       .  A
C297        O859   1.280       .  A
C298        O299   1.279       .  A
C298        C316   1.466       .  S
O300        C316   1.274       .  A
O300       Zn306   2.018       .  S
C301        O317   1.273       .  A
C301        O314   1.280       .  A
C301        C458   1.477       .  S
O302        C315   1.283       .  A
O302       Cd309   2.137       .  S
O303        C321   1.278       .  A
O303       Cd312   2.102       .  S
O304        C318   1.276       .  A
O304       Cd308   2.081       .  S
O305        C316   1.276       .  A
O305       Cd308   2.092       .  S
Zn306       O317   2.050       .  S
Zn306       O319   1.994       .  S
Zn306       O311   1.955       .  S
O307        C318   1.277       .  A
O307       Cd312   2.096       .  S
Cd308       O310   2.067       .  S
Cd308       O311   2.000       .  S
Cd309       O313   2.101       .  S
Cd309       O322   2.108       .  S
Cd309       O311   2.026       .  S
O310        C320   1.274       .  A
O311       Cd312   2.003       .  S
Cd312       O314   2.087       .  S
O313        C320   1.279       .  A
C315        O319   1.272       .  A
C321        O322   1.280       .  A
O323        C339   1.269       .  A
O323       Zn329   1.998       .  S
C324        O337   1.278       .  A
C324        O912   1.269       .  A
C324        C385   1.481       .  S
O325        C338   1.268       .  A
O325       Cd332   2.042       .  S
O326        C344   1.275       .  A
O326       Cd335   2.084       .  S
O327        C913   1.277   1_554  A
O327       Cd331   2.070       .  S
O328        C339   1.280       .  A
O328       Cd331   2.124       .  S
Zn329       O340   1.973       .  S
Zn329       O342   1.961       .  S
Zn329       O906   1.922   1_554  S
O330        C341   1.279       .  A
O330       Cd335   2.081       .  S
Cd331       O333   2.101       .  S
Cd331       O906   2.002   1_554  S
Cd332       O336   2.053   1_455  S
Cd332       O345   2.082       .  S
Cd332       O334   2.003       .  S
O333        C915   1.278   1_455  A
O334       Zn901   1.922       .  S
O334       Cd335   2.026       .  S
O334       Cd903   2.002       .  S
Cd335       O337   2.131       .  S
O336        C343   1.270       .  A
C338        O914   1.267       .  A
C338        C431   1.439       .  S
C339        C367   1.474       .  S
O340        C896   1.269   1_554  A
C341        O899   1.277       .  A
O342        C910   1.267   1_554  A
C343        O905   1.278   1_655  A
C343        C591   1.464       .  S
C344        O345   1.274       .  A
C344        C362   1.468       .  S
O346        C362   1.273       .  A
O346       Zn352   2.015       .  S
C347        O363   1.272       .  A
C347        O360   1.278       .  A
C347        C408   1.468       .  S
O348        C361   1.278       .  A
O348       Cd355   2.096       .  S
O349        C367   1.278       .  A
O349       Cd358   2.104       .  S
O350        C364   1.276       .  A
O350       Cd354   2.073       .  S
O351        C362   1.277       .  A
O351       Cd354   2.098       .  S
Zn352       O363   1.983       .  S
Zn352       O365   2.026       .  S
Zn352       O357   1.940       .  S
O353        C364   1.276       .  A
O353       Cd358   2.081       .  S
Cd354       O356   2.072       .  S
Cd354       O357   1.989       .  S
Cd355       O359   2.095   1_455  S
Cd355       O368   2.082       .  S
Cd355       O357   1.990       .  S
O356        C366   1.275   1_455  A
O357       Cd358   2.014       .  S
Cd358       O360   2.095       .  S
O359        C366   1.278       .  A
C361        O365   1.272       .  A
C361        C453   1.473       .  S
C367        O368   1.275       .  A
O369        C957   1.274   1_554  A
O369       Zn375   1.994       .  S
C370        O386   1.273       .  A
C370        O383   1.272       .  A
C370        C412   1.467       .  S
O371        C384   1.276       .  A
O371       Cd378   2.084       .  S
O372        C962   1.272   1_554  A
O372       Cd381   2.055       .  S
O373        C387   1.278       .  A
O373       Cd377   2.091       .  S
O374        C385   1.279       .  A
O374       Cd377   2.125       .  S
Zn375       O386   2.027       .  S
Zn375       O388   2.039       .  S
Zn375       O952   1.934   1_554  S
O376        C959   1.273   1_554  A
O376       Cd381   2.054       .  S
Cd377       O379   2.104       .  S
Cd377       O380   2.030       .  S
Cd378       O382   2.108       .  S
Cd378       O391   2.108       .  S
Cd378       O380   2.011       .  S
O379        C389   1.280       .  A
O380       Zn947   1.934       .  S
O380       Cd953   1.996       .  S
Cd381       O383   2.079       .  S
Cd381       O952   1.996   1_554  S
O382        C389   1.280       .  A
C384        O960   1.276       .  A
C384        C430   1.471       .  S
C385        O941   1.274       .  A
C387        O948   1.273       .  A
O388        C956   1.276   1_554  A
C389        C393   1.482       .  S
C390        O391   1.279       .  A
C390        O944   1.272       .  A
O392        C408   1.275       .  A
O392       Zn398   1.999       .  S
C393        O409   1.279       .  A
C393        O406   1.276       .  A
O394        C407   1.269       .  A
O394       Cd401   2.060       .  S
O395        C413   1.278       .  A
O395       Cd404   2.090       .  S
O396        C410   1.280       .  A
O396       Cd400   2.093       .  S
O397        C408   1.276       .  A
O397       Cd400   2.089       .  S
Zn398       O409   2.069       .  S
Zn398       O411   2.039       .  S
Zn398       O403   1.919       .  S
O399        C410   1.277       .  A
O399       Cd404   2.073       .  S
Cd400       O402   2.105       .  S
Cd400       O403   2.008       .  S
Cd401       O405   2.057       .  S
Cd401       O414   2.052       .  S
Cd401       O403   1.991       .  S
O402        C412   1.278       .  A
O403       Cd404   1.987       .  S
Cd404       O406   2.094       .  S
O405        C412   1.271       .  A
C407        O411   1.279       .  A
C407        C439   1.461       .  S
C413        O414   1.272       .  A
O415        C431   1.266       .  A
O415       Zn421   1.948       .  S
C416        O432   1.276   1_655  A
C416        O429   1.285       .  A
C416        C465   1.483       .  S
O417       C1002   1.290   1_554  A
O417       Cd424   2.150       .  S
O418       C1008   1.282       .  A
O418       Cd427   2.033   1_455  S
O419        C433   1.268       .  A
O419       Cd423   2.060       .  S
O420       C1003   1.273   1_655  A
O420       Cd423   2.100       .  S
Zn421       O432   1.963       .  S
Zn421       O434   1.970       .  S
Zn421       O426   1.760       .  S
O422       C1005   1.267       .  A
O422       Cd427   2.027       .  S
Cd423       O425   1.930   1_556  S
Cd423       O998   1.959   1_655  S
Cd424       O428   2.197       .  S
Cd424       O437   2.213       .  S
Cd424       O998   1.906   1_554  S
O425        C435   1.245       .  A
O426       Cd427   1.832   1_455  S
O426       Cd995   1.959   1_455  S
O426       Cd996   1.906       .  S
Cd427       O429   2.070       .  S
O428        C435   1.286   1_455  A
C430        O434   1.276       .  A
C430        O989   1.290       .  A
C431        O992   1.273   1_455  A
C433        O994   1.267       .  A
C435        C493   1.498       .  S
C436        O437   1.303       .  A
C436        O990   1.282   1_554  A
O438        C454   1.277   1_455  A
O438       Zn444   2.036       .  S
C439        O455   1.288       .  A
C439        O452   1.275       .  A
O440        C453   1.273       .  A
O440       Cd447   2.114       .  S
O441        C459   1.259       .  A
O441       Cd450   2.078       .  S
O442        C456   1.267   1_655  A
O442       Cd446   2.016       .  S
O443        C454   1.269       .  A
O443       Cd446   1.995       .  S
Zn444       O455   2.065       .  S
Zn444       O457   1.999       .  S
Zn444       O449   1.905       .  S
O445        C456   1.272       .  A
O445       Cd450   2.045       .  S
Cd446       O448   1.979       .  S
Cd446       O449   1.940   1_655  S
Cd447       O451   2.205   1_455  S
Cd447       O460   2.047       .  S
Cd447       O449   1.946       .  S
O448        C458   1.259       .  A
O449       Cd450   2.027       .  S
Cd450       O452   2.040       .  S
O451        C458   1.289       .  A
C453        O457   1.266       .  A
C454        C500   1.497       .  S
C459        O460   1.259       .  A
C459        C472   1.472       .  S
C461        C462   1.410       .  A
C461        C466   1.415       .  A
C461        C479   1.443       .  S
C462        C467   1.550       .  S
C462        C463   1.414       .  A
C463        C464   1.412       .  A
C463        C468   1.442       .  S
C464        C465   1.413       .  A
C464        C480   1.439       .  S
C465        C466   1.416       .  A
C466        C469   1.441       .  S
C467        C470   1.453   1_655  A
C467        C474   1.454       .  A
C468        N485   1.157       .  T
C469        N487   1.157       .  T
C470        C471   1.419       .  A
C470        C475   1.450       .  S
C471        C472   1.395       .  A
C471        C477   1.448       .  S
C472        C473   1.387       .  A
C473        C474   1.414   1_455  A
C473        C476   1.447   1_455  S
C474        C478   1.450       .  S
C475        N482   1.158       .  T
C476        N483   1.158       .  T
C477        N481   1.157       .  T
C478        N484   1.156       .  T
C479        N488   1.157       .  T
C480        N486   1.156       .  T
C489        C490   1.387       .  A
C489        C494   1.410       .  A
C489        C507   1.448       .  S
C490        C495   1.520       .  S
C490        C491   1.421       .  A
C491        C492   1.413       .  A
C491        C496   1.441       .  S
C492        C493   1.406       .  A
C492        C508   1.445   1_655  S
C493        C494   1.446       .  A
C494        C497   1.444       .  S
C495        C498   1.389       .  A
C495        C502   1.426       .  A
C496        N513   1.156       .  T
C497        N515   1.157   1_554  T
C498        C499   1.409       .  A
C498        C503   1.449       .  S
C499        C500   1.425       .  A
C499        C505   1.427       .  S
C500        C501   1.407       .  A
C501        C502   1.417       .  A
C501        C504   1.445       .  S
C502        C506   1.446       .  S
C503        N510   1.158       .  T
C504        N511   1.158       .  T
C505        N509   1.150       .  T
C506        N512   1.157       .  T
C507        N516   1.157       .  T
C508        N514   1.157       .  T
C517        C518   1.412       .  A
C517        C522   1.411       .  A
C517        C535   1.445       .  S
C518        C523   1.533       .  S
C518        C519   1.402       .  A
C519        C520   1.415       .  A
C519        C524   1.445       .  S
C520        C521   1.435       .  A
C520        C536   1.447       .  S
C521        C522   1.420       .  A
C522        C525   1.446       .  S
C523        C526   1.410       .  A
C523        C530   1.399       .  A
C524        N541   1.157       .  T
C525        N543   1.157       .  T
C526        C527   1.413       .  A
C526        C531   1.448       .  S
C527        C528   1.432       .  A
C527        C533   1.449       .  S
C528        C529   1.435       .  A
C529        C530   1.414       .  A
C529        C532   1.452       .  S
C530        C534   1.442       .  S
C531        N538   1.157       .  T
C532        N539   1.158       .  T
C533        N537   1.158   1_545  T
C534        N540   1.155       .  T
C535        N544   1.157       .  T
C536        N542   1.157       .  T
C545        C546   1.400       .  A
C545        C550   1.418       .  A
C545        C563   1.444       .  S
C546        C551   1.532       .  S
C546        C547   1.408       .  A
C547        C548   1.413       .  A
C547        C552   1.446       .  S
C548        C549   1.430       .  A
C548        C564   1.447       .  S
C549        C550   1.439       .  A
C550        C553   1.448       .  S
C551        C554   1.410       .  A
C551        C558   1.402       .  A
C552        N569   1.157       .  T
C553        N571   1.158       .  T
C554        C555   1.411       .  A
C554        C559   1.443       .  S
C555        C556   1.421       .  A
C555        C561   1.447       .  S
C556        C557   1.435       .  A
C557        C558   1.414       .  A
C557        C560   1.448       .  S
C558        C562   1.446       .  S
C559        N566   1.157       .  T
C560        N567   1.156       .  T
C561        N565   1.158       .  T
C562        N568   1.158       .  T
C563        N572   1.157       .  T
C564        N570   1.157   1_565  T
O573        C589   1.273       .  A
O573       Zn579   1.999       .  S
C574        O590   1.273       .  A
C574        O587   1.275       .  A
C574        C616   1.466       .  S
O575       Cd582   2.090       .  S
O576       Cd585   2.070   1_565  S
O577        C591   1.280       .  A
O577       Cd581   2.101       .  S
O578       Cd581   2.128       .  S
Zn579       O590   2.018       .  S
Zn579       O592   2.046       .  S
Zn579       O584   1.952       .  S
O580       Cd585   2.062       .  S
Cd581       O583   2.096       .  S
Cd582       O586   2.134       .  S
Cd582       O595   2.115   1_545  S
O583        C593   1.278       .  A
O584       Cd585   2.000       .  S
Cd585       O587   2.088       .  S
O586        C593   1.283       .  A
C588        O592   1.274       .  A
C588        C680   1.473       .  S
C589        C620   1.483       .  S
C593        C597   1.489       .  S
C594        O595   1.280       .  A
C594        C824   1.474       .  S
O596        C612   1.273       .  A
O596       Zn602   1.989       .  S
C597        O613   1.280       .  A
C597        O610   1.280       .  A
O598        C611   1.268       .  A
O598       Cd605   2.046       .  S
O599        C617   1.279   1_545  A
O599       Cd608   2.105       .  S
O600        C614   1.279       .  A
O600       Cd604   2.087       .  S
O601        C612   1.275       .  A
O601       Cd604   2.091       .  S
Zn602       O613   2.070       .  S
Zn602       O615   2.013       .  S
Zn602       O607   1.919       .  S
O603        C614   1.281       .  A
O603       Cd608   2.091       .  S
Cd604       O606   2.104       .  S
Cd604       O607   2.011       .  S
Cd605       O609   2.053       .  S
Cd605       O618   2.041   1_545  S
Cd605       O607   1.992       .  S
O606        C616   1.277       .  A
O607       Cd608   1.989       .  S
Cd608       O610   2.114       .  S
O609        C616   1.270       .  A
C611        O615   1.275       .  A
C611        C703   1.455       .  S
C612        C643   1.469       .  S
C614        C938   1.466       .  S
C617        O618   1.270       .  A
C617        C847   1.460       .  S
O619        C635   1.284       .  A
O619       Zn625   2.096       .  S
C620        O636   1.275       .  A
O621       Cd628   2.084       .  S
O622        C640   1.275       .  A
O622       Cd631   2.076       .  S
O623        C637   1.277       .  A
O623       Cd627   2.085       .  S
O624        C635   1.280       .  A
O624       Cd627   2.111       .  S
Zn625       O636   2.010       .  S
Zn625       O638   2.043       .  S
Zn625       O630   1.925       .  S
O626       Cd631   2.090       .  S
Cd627       O629   2.085       .  S
Cd627       O630   1.994       .  S
Cd628       O632   2.053       .  S
Cd628       O641   2.068       .  S
O629        C639   1.276       .  A
Cd631       O633   2.118       .  S
C634        O638   1.277   1_554  A
C634        C681   1.473       .  S
C635        C663   1.494       .  S
C637        C867   1.467       .  S
C639        C959   1.457       .  S
C640        O641   1.272       .  A
C640        C658   1.459       .  S
O642        C658   1.267       .  A
O642       Zn648   1.978       .  S
C643        O659   1.271       .  A
C643        O656   1.279       .  A
O644        C657   1.279       .  A
O644       Cd651   2.081       .  S
O645        C663   1.281       .  A
O645       Cd654   2.118       .  S
O646        C660   1.277       .  A
O646       Cd650   2.081       .  S
O647        C658   1.276       .  A
O647       Cd650   2.098       .  S
Zn648       O659   1.976       .  S
Zn648       O661   2.046       .  S
Zn648       O653   1.953       .  S
O649        C660   1.278       .  A
O649       Cd654   2.099       .  S
Cd650       O652   2.073       .  S
Cd650       O653   2.009       .  S
Cd651       O655   2.085       .  S
Cd651       O664   2.127       .  S
Cd651       O653   1.998       .  S
O652        C662   1.274       .  A
O653       Cd654   2.027       .  S
Cd654       O656   2.107       .  S
O655        C662   1.274       .  A
C657        O661   1.272       .  A
C657        C704   1.477       .  S
C660        C890   1.471       .  S
C662        C982   1.464       .  S
C663        O664   1.281       .  A
O665       Zn671   2.045       .  S
C666        O682   1.276   1_565  A
C666        O679   1.266       .  A
C666       C1121   1.510       .  S
O667        C680   1.288       .  A
O667       Cd674   2.156       .  S
O668       Cd677   2.015       .  S
O669        C683   1.275   1_545  A
O669       Cd673   2.048       .  S
O670        C681   1.278       .  A
O670       Cd673   2.086       .  S
Zn671       O682   2.037       .  S
Zn671       O684   1.951       .  S
O672       Cd677   2.060       .  S
Cd673       O675   1.995   1_554  S
Cd673       O676   1.953       .  S
Cd674       O678   2.128       .  S
Cd674       O687   2.177   1_545  S
Cd674       O676   2.027   1_556  S
O675        C685   1.252       .  A
Cd677       O679   2.002       .  S
O678        C685   1.281       .  A
C683        C758   1.458       .  S
C685       C1093   1.488       .  S
C686        O687   1.285       .  A
C686        C727   1.480       .  S
O688        C704   1.258       .  A
O688       Zn694   1.966       .  S
C689        O705   1.268       .  A
C689        O702   1.271       .  A
C689       C1100   1.508       .  S
O690        C703   1.273       .  A
O690       Cd697   2.037   1_545  S
O691        C709   1.275       .  A
O691       Cd700   2.058       .  S
O692        C706   1.286       .  A
O692       Cd696   2.139       .  S
O693        C704   1.283       .  A
O693       Cd696   2.162       .  S
Zn694       O705   1.982       .  S
Zn694       O707   2.017       .  S
Zn694       O699   1.858       .  S
O695        C706   1.268   1_565  A
O695       Cd700   2.008       .  S
Cd696       O698   2.122   1_545  S
Cd696       O699   2.037       .  S
Cd697       O701   1.996   1_565  S
Cd697       O710   2.100       .  S
Cd697       O699   1.949   1_565  S
O698        C708   1.276       .  A
O699       Cd700   1.943   1_545  S
Cd700       O702   2.065   1_565  S
O701        C708   1.250   1_545  A
C703        O707   1.276       .  A
C706        C781   1.463       .  S
C708       C1128   1.492       .  S
C709        O710   1.279       .  A
C709        C750   1.466       .  S
O711        C727   1.275       .  A
O711       Zn717   2.066       .  S
C712        O728   1.272       .  A
C712        O725   1.272       .  A
C712        C754   1.458       .  S
O713       Cd720   2.105       .  S
O714        C732   1.272       .  A
O714       Cd723   2.053       .  S
O715       Cd719   2.093       .  S
O716       Cd719   2.066       .  S
Zn717       O728   2.012       .  S
Zn717       O730   1.984       .  S
Zn717       O722   1.952       .  S
O718        C729   1.272       .  A
O718       Cd723   2.058       .  S
Cd719       O721   2.109       .  S
Cd720       O724   2.127       .  S
Cd720       O733   2.113       .  S
O721        C731   1.277       .  A
O722       Cd723   1.993       .  S
Cd723       O725   2.069       .  S
O724        C731   1.283       .  A
C726        O730   1.274       .  A
C726        C772   1.470       .  S
C729        C869   1.463   1_556  S
C731        C735   1.491       .  S
C732        C962   1.466       .  S
O734        C750   1.278       .  A
O734       Zn740   2.043       .  S
C735        O751   1.284       .  A
C735        O748   1.277       .  A
O736        C749   1.277       .  A
O736       Cd743   2.119       .  S
O737        C755   1.273       .  A
O737       Cd746   2.053       .  S
O738        C752   1.271       .  A
O738       Cd742   2.058       .  S
O739        C750   1.269       .  A
O739       Cd742   2.060       .  S
Zn740       O751   2.100       .  S
Zn740       O753   2.022       .  S
Zn740       O745   1.928       .  S
O741        C752   1.278       .  A
O741       Cd746   2.103       .  S
Cd742       O744   2.057       .  S
Cd742       O745   2.012       .  S
Cd743       O747   2.078       .  S
Cd743       O756   2.099       .  S
Cd743       O745   2.029       .  S
O744        C754   1.272       .  A
O745       Cd746   1.997       .  S
Cd746       O748   2.096       .  S
O747        C754   1.274       .  A
C749        O753   1.276       .  A
C749        C795   1.488       .  S
C752        C892   1.466       .  S
C755        O756   1.281       .  A
C755        C985   1.458       .  S
O757        C773   1.277       .  A
O757       Zn763   2.057       .  S
C758        O774   1.275   1_554  A
O759       Cd766   2.107       .  S
O760        C778   1.269       .  A
O760       Cd769   2.050       .  S
O761        C775   1.280       .  A
O761       Cd765   2.101   1_545  S
O762        C773   1.278       .  A
O762       Cd765   2.103       .  S
Zn763       O774   2.007       .  S
Zn763       O776   1.970       .  S
Zn763       O768   1.909   1_556  S
O764       Cd769   2.036   1_545  S
Cd765       O767   2.061       .  S
Cd765       O768   1.982   1_556  S
Cd766       O770   2.096       .  S
Cd766       O779   2.121       .  S
O767        C777   1.276       .  A
Cd769       O771   2.057   1_565  S
C772        O776   1.270       .  A
C773        C801   1.483       .  S
C775        C913   1.456       .  S
C777        C821   1.459       .  S
C778        O779   1.281       .  A
C778        C796   1.469       .  S
O780        C796   1.271       .  A
O780       Zn786   2.012       .  S
C781        O797   1.274   1_545  A
C781        O794   1.277       .  A
O782        C795   1.285       .  A
O782       Cd789   2.152       .  S
O783        C801   1.278       .  A
O783       Cd792   2.105   1_565  S
O784        C798   1.273       .  A
O784       Cd788   2.060   1_545  S
O785        C796   1.276       .  A
O785       Cd788   2.097       .  S
Zn786       O797   2.039       .  S
Zn786       O799   1.985       .  S
Zn786       O791   1.942       .  S
O787        C798   1.276       .  A
O787       Cd792   2.087       .  S
Cd788       O790   2.038       .  S
Cd788       O791   1.993       .  S
Cd789       O793   2.114       .  S
Cd789       O802   2.111       .  S
Cd789       O791   2.026       .  S
O790        C800   1.270       .  A
O791       Cd792   2.004   1_565  S
Cd792       O794   2.066       .  S
O793        C800   1.282       .  A
C795        O799   1.271       .  A
C798        C936   1.462       .  S
C800        C844   1.460       .  S
C801        O802   1.280       .  A
O803        C819   1.281       .  A
O803       Zn809   2.097       .  S
C804        O820   1.278       .  A
C804        O817   1.271       .  A
C804        C846   1.469       .  S
O805       Cd812   2.101       .  S
O806        C824   1.273       .  A
O806       Cd815   2.070       .  S
O807        C821   1.278       .  A
O807       Cd811   2.098   1_455  S
O808       Cd811   2.090   1_455  S
Zn809       O820   2.054       .  S
Zn809       O822   2.001       .  S
Zn809       O814   1.955       .  S
O810       Cd815   2.046   1_455  S
Cd811       O813   2.112       .  S
Cd812       O816   2.118       .  S
Cd812       O825   2.112       .  S
O813        C823   1.280       .  A
O814       Cd815   1.997       .  S
Cd815       O817   2.063       .  S
O816        C823   1.282       .  A
C818        O822   1.276       .  A
C818        C864   1.472       .  S
C819       C1008   1.493   1_655  S
C823        C827   1.488       .  S
O826        C842   1.279   1_655  A
O826       Zn832   2.014       .  S
C827        O843   1.282       .  A
C827        O840   1.277       .  A
O828        C841   1.278       .  A
O828       Cd835   2.114       .  S
O829        C847   1.277       .  A
O829       Cd838   2.064       .  S
O830        C844   1.268       .  A
O830       Cd834   2.033   1_455  S
O831        C842   1.264       .  A
O831       Cd834   2.024   1_455  S
Zn832       O843   2.085       .  S
Zn832       O845   2.020       .  S
Zn832       O837   1.907       .  S
O833        C844   1.278       .  A
O833       Cd838   2.108   1_455  S
Cd834       O836   2.058       .  S
Cd834       O837   1.997       .  S
Cd835       O839   2.104       .  S
Cd835       O848   2.102       .  S
Cd835       O837   2.010       .  S
O836        C846   1.271       .  A
O837       Cd838   1.983       .  S
Cd838       O840   2.098       .  S
O839        C846   1.276       .  A
C841        O845   1.276       .  A
C841        C887   1.485       .  S
C842       C1028   1.441       .  S
C847        O848   1.283       .  A
O849        C865   1.271       .  A
O849       Zn855   2.014       .  S
C850        O866   1.268       .  A
C850       C1005   1.438       .  S
O851       Cd858   2.114       .  S
O852        C870   1.268       .  A
O852       Cd861   2.041       .  S
O853       Cd857   2.131       .  S
O854        C865   1.282       .  A
O854       Cd857   2.133       .  S
Zn855       O866   1.967       .  S
Zn855       O868   1.961       .  S
Zn855       O860   1.921       .  S
O856        C867   1.266       .  A
O856       Cd861   2.029       .  S
Cd857       O859   2.083       .  S
Cd857       O860   2.001       .  S
Cd858       O862   2.090       .  S
Cd858       O871   2.114       .  S
Cd861       O863   2.025       .  S
O862        C869   1.281   1_556  A
C864        O868   1.267       .  A
C865        C893   1.481       .  S
C870        O871   1.279       .  A
C870        C888   1.466       .  S
O872        C888   1.274       .  A
O872       Zn878   2.018       .  S
C873        O889   1.273       .  A
C873        O886   1.280       .  A
C873       C1030   1.477       .  S
O874        C887   1.283       .  A
O874       Cd881   2.137       .  S
O875        C893   1.278       .  A
O875       Cd884   2.102       .  S
O876        C890   1.276       .  A
O876       Cd880   2.081       .  S
O877        C888   1.276       .  A
O877       Cd880   2.092       .  S
Zn878       O889   2.050       .  S
Zn878       O891   1.994       .  S
Zn878       O883   1.955       .  S
O879        C890   1.277       .  A
O879       Cd884   2.096       .  S
Cd880       O882   2.067       .  S
Cd880       O883   2.000       .  S
Cd881       O885   2.101       .  S
Cd881       O894   2.108       .  S
Cd881       O883   2.026       .  S
O882        C892   1.274       .  A
O883       Cd884   2.003       .  S
Cd884       O886   2.087       .  S
O885        C892   1.279       .  A
C887        O891   1.272       .  A
C893        O894   1.280       .  A
O895        C911   1.269       .  A
O895       Zn901   1.998       .  S
C896        O909   1.278       .  A
C896        C957   1.481       .  S
O897        C910   1.268       .  A
O897       Cd904   2.042       .  S
O898        C916   1.275       .  A
O898       Cd907   2.084       .  S
O899       Cd903   2.070       .  S
O900        C911   1.280       .  A
O900       Cd903   2.125       .  S
Zn901       O912   1.973       .  S
Zn901       O914   1.961       .  S
O902        C913   1.279       .  A
O902       Cd907   2.081       .  S
Cd903       O905   2.101       .  S
Cd904       O908   2.053   1_455  S
Cd904       O917   2.082       .  S
Cd904       O906   2.003       .  S
O906       Cd907   2.026       .  S
Cd907       O909   2.131       .  S
O908        C915   1.270   1_556  A
C910       C1003   1.439       .  S
C911        C939   1.474       .  S
C916        O917   1.274       .  A
C916        C934   1.468       .  S
O918        C934   1.273       .  A
O918       Zn924   2.015       .  S
C919        O935   1.272       .  A
C919        O932   1.278       .  A
C919        C980   1.468       .  S
O920        C933   1.278       .  A
O920       Cd927   2.096       .  S
O921        C939   1.278       .  A
O921       Cd930   2.104       .  S
O922        C936   1.276       .  A
O922       Cd926   2.073       .  S
O923        C934   1.277       .  A
O923       Cd926   2.098       .  S
Zn924       O935   1.983       .  S
Zn924       O937   2.026       .  S
Zn924       O929   1.940       .  S
O925        C936   1.276       .  A
O925       Cd930   2.081       .  S
Cd926       O928   2.072       .  S
Cd926       O929   1.989       .  S
Cd927       O931   2.095   1_455  S
Cd927       O940   2.082       .  S
Cd927       O929   1.990       .  S
O928        C938   1.275   1_455  A
O929       Cd930   2.014       .  S
Cd930       O932   2.095       .  S
O931        C938   1.278       .  A
C933        O937   1.272       .  A
C933       C1025   1.473       .  S
C939        O940   1.275       .  A
O941       Zn947   1.994       .  S
C942        O958   1.273       .  A
C942        O955   1.272       .  A
C942        C984   1.467       .  S
O943        C956   1.276       .  A
O943       Cd950   2.084       .  S
O944       Cd953   2.055       .  S
O945        C959   1.278       .  A
O945       Cd949   2.091       .  S
O946        C957   1.279       .  A
O946       Cd949   2.125       .  S
Zn947       O958   2.027       .  S
Zn947       O960   2.039       .  S
O948       Cd953   2.054       .  S
Cd949       O951   2.104       .  S
Cd949       O952   2.030       .  S
Cd950       O954   2.108       .  S
Cd950       O963   2.108       .  S
Cd950       O952   2.011       .  S
O951        C961   1.280       .  A
Cd953       O955   2.079       .  S
O954        C961   1.280       .  A
C956       C1002   1.471       .  S
C961        C965   1.482       .  S
C962        O963   1.279       .  A
O964        C980   1.275       .  A
O964       Zn970   1.999       .  S
C965        O981   1.279       .  A
C965        O978   1.276       .  A
O966        C979   1.269       .  A
O966       Cd973   2.060       .  S
O967        C985   1.278       .  A
O967       Cd976   2.090       .  S
O968        C982   1.280       .  A
O968       Cd972   2.093       .  S
O969        C980   1.276       .  A
O969       Cd972   2.089       .  S
Zn970       O981   2.069       .  S
Zn970       O983   2.039       .  S
Zn970       O975   1.919       .  S
O971        C982   1.277       .  A
O971       Cd976   2.073       .  S
Cd972       O974   2.105       .  S
Cd972       O975   2.008       .  S
Cd973       O977   2.057       .  S
Cd973       O986   2.052       .  S
Cd973       O975   1.991       .  S
O974        C984   1.278       .  A
O975       Cd976   1.987       .  S
Cd976       O978   2.094       .  S
O977        C984   1.271       .  A
C979        O983   1.279       .  A
C979       C1011   1.461       .  S
C985        O986   1.272       .  A
O987       C1003   1.266   1_554  A
O987       Zn993   1.948   1_554  S
C988       O1004   1.276   1_655  A
C988       O1001   1.285       .  A
C988       C1037   1.483       .  S
O989       Cd996   2.150       .  S
O990       Cd999   2.033   1_455  S
O991       C1005   1.268       .  A
O991       Cd995   2.060       .  S
O992       Cd995   2.100       .  S
Zn993      O1004   1.963       .  S
Zn993      O1006   1.970       .  S
Zn993       O998   1.760       .  S
O994       Cd999   2.027       .  S
Cd995       O997   1.929       .  S
Cd996      O1000   2.197       .  S
Cd996      O1009   2.213       .  S
O997       C1007   1.245       .  A
O998       Cd999   1.832   1_455  S
Cd999      O1001   2.070       .  S
O1000      C1007   1.286   1_455  A
C1002      O1006   1.276       .  A
C1007      C1065   1.498       .  S
C1008      O1009   1.303       .  A
O1010      C1026   1.277   1_455  A
O1010     Zn1016   2.036       .  S
C1011      O1027   1.288       .  A
C1011      O1024   1.275       .  A
O1012      C1025   1.273       .  A
O1012     Cd1019   2.114       .  S
O1013      C1031   1.259       .  A
O1013     Cd1022   2.078       .  S
O1014      C1028   1.267   1_655  A
O1014     Cd1018   2.016       .  S
O1015      C1026   1.269       .  A
O1015     Cd1018   1.995       .  S
Zn1016     O1027   2.065       .  S
Zn1016     O1029   1.998       .  S
Zn1016     O1021   1.905       .  S
O1017      C1028   1.272       .  A
O1017     Cd1022   2.045       .  S
Cd1018     O1020   1.979       .  S
Cd1018     O1021   1.940   1_655  S
Cd1019     O1023   2.205   1_455  S
Cd1019     O1032   2.047       .  S
Cd1019     O1021   1.946       .  S
O1020      C1030   1.259       .  A
O1021     Cd1022   2.027       .  S
Cd1022     O1024   2.040       .  S
O1023      C1030   1.289       .  A
C1025      O1029   1.266       .  A
C1026      C1072   1.497       .  S
C1031      O1032   1.259       .  A
C1031      C1044   1.472       .  S
C1033      C1034   1.410       .  A
C1033      C1038   1.415       .  A
C1033      C1051   1.443       .  S
C1034      C1039   1.550       .  S
C1034      C1035   1.414       .  A
C1035      C1036   1.412       .  A
C1035      C1040   1.442       .  S
C1036      C1037   1.413       .  A
C1036      C1052   1.439       .  S
C1037      C1038   1.416       .  A
C1038      C1041   1.441       .  S
C1039      C1042   1.453   1_655  A
C1039      C1046   1.454       .  A
C1040      N1057   1.157       .  T
C1041      N1059   1.157       .  T
C1042      C1043   1.419       .  A
C1042      C1047   1.450       .  S
C1043      C1044   1.395       .  A
C1043      C1049   1.448       .  S
C1044      C1045   1.387       .  A
C1045      C1046   1.414   1_455  A
C1045      C1048   1.447   1_455  S
C1046      C1050   1.450       .  S
C1047      N1054   1.158       .  T
C1048      N1055   1.158       .  T
C1049      N1053   1.157       .  T
C1050      N1056   1.156       .  T
C1051      N1060   1.157       .  T
C1052      N1058   1.156       .  T
C1061      C1062   1.387       .  A
C1061      C1066   1.410       .  A
C1061      C1079   1.448       .  S
C1062      C1067   1.520       .  S
C1062      C1063   1.421       .  A
C1063      C1064   1.413       .  A
C1063      C1068   1.441       .  S
C1064      C1065   1.406       .  A
C1064      C1080   1.445   1_655  S
C1065      C1066   1.446       .  A
C1066      C1069   1.444       .  S
C1067      C1070   1.389       .  A
C1067      C1074   1.426       .  A
C1068      N1085   1.156       .  T
C1069      N1087   1.157       .  T
C1070      C1071   1.409       .  A
C1070      C1075   1.449       .  S
C1071      C1072   1.425       .  A
C1071      C1077   1.427       .  S
C1072      C1073   1.407       .  A
C1073      C1074   1.417       .  A
C1073      C1076   1.445       .  S
C1074      C1078   1.446       .  S
C1075      N1082   1.158       .  T
C1076      N1083   1.158       .  T
C1077      N1081   1.150       .  T
C1078      N1084   1.157       .  T
C1079      N1088   1.157       .  T
C1080      N1086   1.157       .  T
C1089      C1090   1.412       .  A
C1089      C1094   1.411       .  A
C1089      C1107   1.445       .  S
C1090      C1095   1.533       .  S
C1090      C1091   1.402       .  A
C1091      C1092   1.415       .  A
C1091      C1096   1.445       .  S
C1092      C1093   1.435       .  A
C1092      C1108   1.447       .  S
C1093      C1094   1.420       .  A
C1094      C1097   1.446       .  S
C1095      C1098   1.410       .  A
C1095      C1102   1.399       .  A
C1096      N1113   1.157       .  T
C1097      N1115   1.157       .  T
C1098      C1099   1.413       .  A
C1098      C1103   1.448       .  S
C1099      C1100   1.432       .  A
C1099      C1105   1.449       .  S
C1100      C1101   1.435       .  A
C1101      C1102   1.414       .  A
C1101      C1104   1.452       .  S
C1102      C1106   1.442       .  S
C1103      N1110   1.157       .  T
C1104      N1111   1.158       .  T
C1105      N1109   1.158   1_545  T
C1106      N1112   1.155       .  T
C1107      N1116   1.157       .  T
C1108      N1114   1.157       .  T
C1117      C1118   1.400       .  A
C1117      C1122   1.418       .  A
C1117      C1135   1.444       .  S
C1118      C1123   1.532       .  S
C1118      C1119   1.408       .  A
C1119      C1120   1.413       .  A
C1119      C1124   1.446       .  S
C1120      C1121   1.430       .  A
C1120      C1136   1.447       .  S
C1121      C1122   1.439       .  A
C1122      C1125   1.448       .  S
C1123      C1126   1.410       .  A
C1123      C1130   1.402       .  A
C1124      N1141   1.157       .  T
C1125      N1143   1.158       .  T
C1126      C1127   1.411       .  A
C1126      C1131   1.443       .  S
C1127      C1128   1.421       .  A
C1127      C1133   1.447       .  S
C1128      C1129   1.435       .  A
C1129      C1130   1.414       .  A
C1129      C1132   1.448       .  S
C1130      C1134   1.446       .  S
C1131      N1138   1.157       .  T
C1132      N1139   1.156       .  T
C1133      N1137   1.158       .  T
C1134      N1140   1.158       .  T
C1135      N1144   1.157       .  T
C1136      N1142   1.157   1_565  T
