geometry optimzed in LAMMPS
_audit_creation_date              2020-11-30 
_audit_creation_method            'lammps2cif' 
_symmetry_space_group_name_H-M    'P1' 
_symmetry_Int_Tables_number       1 
_symmetry_cell_setting            triclinic 
loop_ 
_symmetry_equiv_pos_as_xyz 
  x,y,z 
_cell_length_a                    34.69472983 
_cell_length_b                    34.665454995070235 
_cell_length_c                    30.01450545118059 
_cell_angle_alpha                 89.33193506362217 
_cell_angle_beta                  89.9331513257119 
_cell_angle_gamma                 90.00808430939793 
loop_ 
_atom_site_label 
_atom_site_type_symbol 
_atom_site_fract_x 
_atom_site_fract_y 
_atom_site_fract_z 
_atom_site_charge 
C1          C  0.11393730  0.99971106  0.33349556    -0.00700
O2          O  0.20328880  0.03133445  0.11862762    -0.71100
O3          O  0.28513595  0.03210629  0.21320149    -0.72100
O4          O  0.28503165  0.03145871  0.11855248    -0.60700
O5          O  0.20339458  0.03224995  0.21329595    -0.69100
O6          O  0.20332910  0.46811630  0.21486764    -0.68700
O7          O  0.28505961  0.46732245  0.11997786    -0.59900
O8          O  0.28507106  0.46797169  0.21462623    -0.72400
O9          O  0.20331966  0.46720222  0.12020115    -0.71200
Cu10       Cu  0.24421370  0.03405274  0.16586314     1.04600
Cu11       Cu  0.24419443  0.46538820  0.16747446     1.04300
C12         C  0.19064664  0.49912320  0.10451278     0.95100
C13         C  0.29776197  0.50011673  0.22880997     0.94200
C14         C  0.29768512  0.49930918  0.10432034     0.86400
C15         C  0.19072269  0.50033063  0.22903189     0.92600
C16         C  0.37443079  0.99969387  0.99984188    -0.00700
C17         C  0.49414123  0.11936505  0.00157030    -0.00700
O18         O  0.46220981  0.29082228  0.21330322    -0.71100
O19         O  0.46213636  0.20857311  0.12019718    -0.72100
O20         O  0.46235218  0.20901741  0.21485273    -0.60700
O21         O  0.46226137  0.29037894  0.11864754    -0.69100
O22         O  0.02634842  0.29034990  0.11857480    -0.68700
O23         O  0.02643883  0.20907777  0.21462006    -0.59900
O24         O  0.02620751  0.20853975  0.11996031    -0.72400
O25         O  0.02628102  0.29088781  0.21323352    -0.71200
Cu26       Cu  0.45997676  0.24969723  0.16675591     1.04600
Cu27       Cu  0.02858296  0.24971440  0.16659131     1.04300
C28         C  0.49421966  0.30359798  0.22796137     0.95100
C29         C  0.49412504  0.19581334  0.10538569     0.94200
C30         C  0.49444276  0.19647562  0.22989030     0.86400
C31         C  0.49432635  0.30293701  0.10345788     0.92600
C32         C  0.49412907  0.38004631  0.99844299    -0.00700
C33         C  0.49412072  0.33216016  0.26219223    -0.11400
C34         C  0.49407218  0.35471458  0.29252221    -0.13000
C35         C  0.49436089  0.35381286  0.03748631    -0.11400
C36         C  0.49440826  0.33117831  0.06826483    -0.13000
C37         C  0.49457811  0.16823552  0.26508432    -0.11400
C38         C  0.49450627  0.14560004  0.29586222    -0.13000
C39         C  0.49398165  0.16725069  0.07115500    -0.11400
C40         C  0.49395528  0.14469485  0.04082601    -0.13000
C41         C  0.45473285  0.43258123  0.96095091    -0.11500
C42         C  0.45835312  0.40600039  0.99651448     0.10600
C43         C  0.43058375  0.40708328  0.03090261    -0.11500
C44         C  0.40210118  0.43561990  0.03127485    -0.11500
C45         C  0.40043023  0.46401980  0.99727261     0.10600
C46         C  0.42635075  0.46104022  0.96133451    -0.11500
H47         H  0.47531097  0.43249664  0.93378293     0.14200
H48         H  0.43162006  0.38711638  0.05881411     0.14600
H49         H  0.38264946  0.43618685  0.05942993     0.14600
H50         H  0.42578757  0.48213232  0.93442702     0.14600
C51         C  0.45461824  0.06679066  0.03893548    -0.11500
C52         C  0.45835473  0.09340264  0.00341033     0.10600
C53         C  0.43070219  0.09233231  0.30229908    -0.11500
C54         C  0.40222840  0.06378036  0.30183678    -0.11500
C55         C  0.40044790  0.03535433  0.00246948     0.10600
C56         C  0.42624865  0.03831457  0.03845930    -0.11500
H57         H  0.47510161  0.06686337  0.06614515     0.14600
H58         H  0.43182678  0.11232215  0.27441212     0.14600
H59         H  0.38287054  0.06322588  0.27364753     0.14600
H60         H  0.42559558  0.01720337  0.06534499     0.14600
C61         C  0.34871873  0.50015297  0.29401030    -0.11400
C62         C  0.32615811  0.50024405  0.26346947    -0.13000
C63         C  0.34862169  0.49925166  0.03898098    -0.11400
C64         C  0.32604820  0.49917292  0.06956246    -0.13000
C65         C  0.06175765  0.45978449  0.03751428    -0.11500
C66         C  0.08791568  0.46393763  0.00188668     0.10600
C67         C  0.08631878  0.43675146  0.96727264    -0.11500
C68         C  0.05771062  0.40832288  0.96679023    -0.11500
C69         C  0.02975735  0.40612494  0.00090582     0.10600
C70         C  0.03322588  0.43147765  0.03701028    -0.11500
H71         H  0.06223220  0.47990184  0.39818759     0.14600
H72         H  0.10593554  0.43822284  0.93929177     0.14600
H73         H  0.05674814  0.38932104  0.93850141     0.14600
H74         H  0.01249467  0.43049905  0.06401643     0.14600
C75         C  0.06187903  0.03960405  0.29603208    -0.11500
C76         C  0.08791180  0.03546757  0.99838392     0.10600
C77         C  0.08620564  0.06267187  0.03297174    -0.11500
C78         C  0.05760979  0.09110824  0.03336890    -0.11500
C79         C  0.02977823  0.09329334  0.99919139     0.10600
C80         C  0.03336349  0.06792062  0.29644820    -0.11500
H81         H  0.06244317  0.01947229  0.26870609     0.14600
H82         H  0.10572473  0.06121001  0.06099205     0.14600
H83         H  0.05655694  0.11012620  0.06164128     0.14600
H84         H  0.01273051  0.06888772  0.26939729     0.14600
C85         C  0.13975013  0.50056064  0.29435341    -0.11400
C86         C  0.16235146  0.50068066  0.26379010    -0.13000
C87         C  0.16224330  0.49877587  0.06985251    -0.11400
C88         C  0.13965468  0.49888223  0.03933051    -0.13000
C89         C  0.11393718  0.99971096  0.66682986    -0.00700
O90         O  0.20328744  0.03133456  0.45196111    -0.71100
O91         O  0.28513494  0.03210642  0.54653475    -0.72100
O92         O  0.28503028  0.03145882  0.45188581    -0.60700
O93         O  0.20339355  0.03224996  0.54662947    -0.69100
O94         O  0.20332802  0.46811636  0.54820096    -0.68700
O95         O  0.28505826  0.46732252  0.45331105    -0.59900
O96         O  0.28507001  0.46797170  0.54795931    -0.72400
O97         O  0.20331848  0.46720234  0.45353438    -0.71200
Cu98       Cu  0.24421245  0.03405286  0.49919653     1.04600
Cu99       Cu  0.24419325  0.46538832  0.50080772     1.04300
C100        C  0.19064522  0.49912331  0.43784612     0.95100
C101        C  0.29776096  0.50011678  0.56214302     0.94200
C102        C  0.29768386  0.49930929  0.43765372     0.86400
C103        C  0.19072175  0.50033067  0.56236540     0.92600
C104        C  0.37443003  0.99969421  0.33317594    -0.00700
C105        C  0.49414039  0.11936533  0.33490388    -0.00700
O106        O  0.46220994  0.29082259  0.54663671    -0.71100
O107        O  0.46213604  0.20857367  0.45353053    -0.72100
O108        O  0.46235213  0.20901772  0.54818600    -0.60700
O109        O  0.46226108  0.29037956  0.45198113    -0.69100
O110        O  0.02634808  0.29035041  0.45190800    -0.68700
O111        O  0.02643880  0.20907814  0.54795301    -0.59900
O112        O  0.02620696  0.20854027  0.45329347    -0.72400
O113        O  0.02628109  0.29088817  0.54656664    -0.71200
Cu114      Cu  0.45997662  0.24969774  0.50008939     1.04600
Cu115      Cu  0.02858275  0.24971484  0.49992441     1.04300
C116        C  0.49421977  0.30359824  0.56129485     0.95100
C117        C  0.49412467  0.19581394  0.43871888     0.94200
C118        C  0.49444275  0.19647597  0.56322345     0.86400
C119        C  0.49432600  0.30293752  0.43679124     0.92600
C120        C  0.49412828  0.38004657  0.33177603    -0.00700
C121        C  0.49412097  0.33216037  0.59552591    -0.11400
C122        C  0.49407241  0.35471482  0.62585584    -0.13000
C123        C  0.49436033  0.35381312  0.37081939    -0.11400
C124        C  0.49440770  0.33117880  0.40159812    -0.13000
C125        C  0.49457819  0.16823567  0.59841736    -0.11400
C126        C  0.49450640  0.14560004  0.62919517    -0.13000
C127        C  0.49398105  0.16725115  0.40448841    -0.11400
C128        C  0.49395456  0.14469513  0.37415960    -0.13000
C129        C  0.45473195  0.43258120  0.29428447    -0.11500
C130        C  0.45835241  0.40600058  0.32984786     0.10600
C131        C  0.43058326  0.40708364  0.36423644    -0.11500
C132        C  0.40210074  0.43562034  0.36460917    -0.11500
C133        C  0.40042957  0.46402004  0.33060694     0.10600
C134        C  0.42634997  0.46104033  0.29466845    -0.11500
H135        H  0.47531044  0.43249685  0.26711555     0.14200
H136        H  0.43161987  0.38711691  0.39214799     0.14600
H137        H  0.38264964  0.43618758  0.39276479     0.14600
H138        H  0.42578655  0.48213130  0.26776222     0.14600
C139        C  0.45461736  0.06679106  0.37226953    -0.11500
C140        C  0.45835389  0.09340295  0.33674413     0.10600
C141        C  0.43070202  0.09233248  0.63563137    -0.11500
C142        C  0.40222829  0.06378048  0.63516889    -0.11500
C143        C  0.40044696  0.03535476  0.33580356     0.10600
C144        C  0.42624771  0.03831499  0.37179338    -0.11500
H145        H  0.47510080  0.06686384  0.39947879     0.14600
H146        H  0.43182667  0.11232294  0.60774376     0.14600
H147        H  0.38286978  0.06322595  0.60697947     0.14600
H148        H  0.42559476  0.01720310  0.39867963     0.14600
C149        C  0.34871844  0.50015292  0.62734263    -0.11400
C150        C  0.32615744  0.50024404  0.59680216    -0.13000
C151        C  0.34862087  0.49925193  0.37231478    -0.11400
C152        C  0.32604721  0.49917322  0.40289608    -0.13000
C153        C  0.06175722  0.45978445  0.37084675    -0.11500
C154        C  0.08791496  0.46393789  0.33521868     0.10600
C155        C  0.08631755  0.43675224  0.30060430    -0.11500
C156        C  0.05770934  0.40832357  0.30012222    -0.11500
C157        C  0.02975645  0.40612532  0.33423845     0.10600
C158        C  0.03322545  0.43147757  0.37034305    -0.11500
H159        H  0.06223172  0.47990207  0.73152160     0.14600
H160        H  0.10593383  0.43822428  0.27262220     0.14600
H161        H  0.05674631  0.38932222  0.27183369     0.14600
H162        H  0.01249487  0.43049896  0.39734937     0.14600
C163        C  0.06187870  0.03960363  0.62936577    -0.11500
C164        C  0.08791100  0.03546796  0.33171643     0.10600
C165        C  0.08620463  0.06267178  0.36630452    -0.11500
C166        C  0.05760870  0.09110812  0.36670201    -0.11500
C167        C  0.02977720  0.09329348  0.33252452     0.10600
C168        C  0.03336336  0.06792045  0.62978160    -0.11500
H169        H  0.06244247  0.01947100  0.60203908     0.14600
H170        H  0.10572327  0.06121014  0.39432401     0.14600
H171        H  0.05655614  0.11012504  0.39497378     0.14600
H172        H  0.01273012  0.06888750  0.60273151     0.14600
C173        C  0.13975002  0.50056041  0.62768763    -0.11400
C174        C  0.16235100  0.50068072  0.59712400    -0.13000
C175        C  0.16224215  0.49877615  0.40318542    -0.11400
C176        C  0.13965374  0.49888239  0.37266318    -0.13000
C177        C  0.11393811  0.99971069  0.00016309    -0.00700
O178        O  0.20328822  0.03133447  0.78529466    -0.71100
O179        O  0.28513612  0.03210623  0.87986808    -0.72100
O180        O  0.28503107  0.03145874  0.78521903    -0.60700
O181        O  0.20339470  0.03224972  0.87996309    -0.69100
O182        O  0.20332924  0.46811602  0.88153442    -0.68700
O183        O  0.28505912  0.46732251  0.78664405    -0.59900
O184        O  0.28507115  0.46797148  0.88129250    -0.72400
O185        O  0.20331928  0.46720229  0.78686796    -0.71200
Cu186      Cu  0.24421343  0.03405268  0.83252998     1.04600
Cu187      Cu  0.24419426  0.46538813  0.83414098     1.04300
C188        C  0.19064596  0.49912327  0.77117974     0.95100
C189        C  0.29776219  0.50011654  0.89547623     0.94200
C190        C  0.29768455  0.49930927  0.77098669     0.86400
C191        C  0.19072290  0.50033030  0.89569887     0.92600
C192        C  0.37442996  0.99969424  0.66650820    -0.00700
C193        C  0.49414041  0.11936532  0.66823685    -0.00700
O194        O  0.46221052  0.29082219  0.87997038    -0.71100
O195        O  0.46213622  0.20857324  0.78686407    -0.72100
O196        O  0.46235289  0.20901730  0.88151973    -0.60700
O197        O  0.46226122  0.29037921  0.78531466    -0.69100
O198        O  0.02634807  0.29035007  0.78524107    -0.68700
O199        O  0.02643953  0.20907770  0.88128619    -0.59900
O200        O  0.02620714  0.20853986  0.78662640    -0.72400
O201        O  0.02628175  0.29088773  0.87989978    -0.71200
Cu202      Cu  0.45997703  0.24969733  0.83342297     1.04600
Cu203      Cu  0.02858313  0.24971444  0.83325749     1.04300
C204        C  0.49422049  0.30359786  0.89462818     0.95100
C205        C  0.49412474  0.19581357  0.77205210     0.94200
C206        C  0.49444357  0.19647542  0.89655673     0.86400
C207        C  0.49432603  0.30293727  0.77012457     0.92600
C208        C  0.49412830  0.38004664  0.66510968    -0.00700
C209        C  0.49412180  0.33216000  0.92885914    -0.11400
C210        C  0.49407331  0.35471442  0.95918910    -0.13000
C211        C  0.49435995  0.35381316  0.70415298    -0.11400
C212        C  0.49440759  0.33117876  0.73493163    -0.13000
C213        C  0.49457907  0.16823533  0.93175077    -0.11400
C214        C  0.49450728  0.14559976  0.96252861    -0.13000
C215        C  0.49398100  0.16725096  0.73782152    -0.11400
C216        C  0.49395436  0.14469515  0.70749252    -0.13000
C217        C  0.45473218  0.43258144  0.62761746    -0.11500
C218        C  0.45835242  0.40600067  0.66318106     0.10600
C219        C  0.43058294  0.40708358  0.69756899    -0.11500
C220        C  0.40210029  0.43562024  0.69794130    -0.11500
C221        C  0.40042938  0.46402009  0.66393899     0.10600
C222        C  0.42635004  0.46104052  0.62800103    -0.11500
H223        H  0.47531040  0.43249699  0.60044937     0.14200
H224        H  0.43161917  0.38711660  0.72548089     0.14600
H225        H  0.38264927  0.43618738  0.72609579     0.14600
H226        H  0.42578703  0.48213229  0.60109432     0.14600
C227        C  0.45461717  0.06679117  0.70560172    -0.11500
C228        C  0.45835378  0.09340312  0.67007652     0.10600
C229        C  0.43070316  0.09233181  0.96896506    -0.11500
C230        C  0.40222936  0.06377976  0.96850278    -0.11500
C231        C  0.40044690  0.03535485  0.66913552     0.10600
C232        C  0.42624762  0.03831508  0.70512536    -0.11500
H233        H  0.47510046  0.06686371  0.73281110     0.14600
H234        H  0.43182764  0.11232163  0.94107823     0.14600
H235        H  0.38287138  0.06322516  0.94031392     0.14600
H236        H  0.42559480  0.01720365  0.73201079     0.14600
C237        C  0.34871930  0.50015268  0.96067621    -0.11400
C238        C  0.32615845  0.50024388  0.93013560    -0.13000
C239        C  0.34862086  0.49925201  0.70564723    -0.11400
C240        C  0.32604747  0.49917308  0.73622872    -0.13000
C241        C  0.06175688  0.45978451  0.70418090    -0.11500
C242        C  0.08791484  0.46393778  0.66855315     0.10600
C243        C  0.08631784  0.43675174  0.63393899    -0.11500
C244        C  0.05770959  0.40832313  0.63345658    -0.11500
C245        C  0.02975637  0.40612512  0.66757238     0.10600
C246        C  0.03322508  0.43147771  0.70367686    -0.11500
H247        H  0.06223223  0.47990309  0.06485542     0.14600
H248        H  0.10593442  0.43822351  0.60595798     0.14600
H249        H  0.05674695  0.38932115  0.60516724     0.14600
H250        H  0.01249391  0.43049944  0.73068329     0.14600
C251        C  0.06187988  0.03960354  0.96269931    -0.11500
C252        C  0.08791067  0.03546766  0.66505021     0.10600
C253        C  0.08620445  0.06267192  0.69963801    -0.11500
C254        C  0.05760867  0.09110840  0.70003522    -0.11500
C255        C  0.02977713  0.09329343  0.66585793     0.10600
C256        C  0.03336447  0.06792022  0.96311516    -0.11500
H257        H  0.06244387  0.01947142  0.93537332     0.14600
H258        H  0.10572312  0.06121029  0.72765765     0.14600
H259        H  0.05655581  0.11012548  0.72830718     0.14600
H260        H  0.01273149  0.06888732  0.93606440     0.14600
C261        C  0.13975083  0.50056004  0.96102076    -0.11400
C262        C  0.16235206  0.50068028  0.93045735    -0.13000
C263        C  0.16224240  0.49877618  0.73651935    -0.11400
C264        C  0.13965376  0.49888258  0.70599727    -0.13000
C265        C  0.11393719  0.49971109  0.33349562    -0.00700
O266        O  0.20328872  0.53133443  0.11862767    -0.71100
O267        O  0.28513587  0.53210633  0.21320153    -0.72100
O268        O  0.28503157  0.53145869  0.11855248    -0.60700
O269        O  0.20339444  0.53224990  0.21329598    -0.69100
O270        O  0.20332921  0.96811643  0.21486762    -0.68700
O271        O  0.28505976  0.96732242  0.11997790    -0.59900
O272        O  0.28507119  0.96797159  0.21462628    -0.72400
O273        O  0.20331984  0.96720219  0.12020112    -0.71200
Cu274      Cu  0.24421361  0.53405270  0.16586316     1.04600
Cu275      Cu  0.24419456  0.96538819  0.16747447     1.04300
C276        C  0.19064677  0.99912318  0.10451274     0.95100
C277        C  0.29776198  0.00011668  0.22881006     0.94200
C278        C  0.29768519  0.99930918  0.10432031     0.86400
C279        C  0.19072282  0.00033075  0.22903188     0.92600
C280        C  0.37443064  0.49969383  0.99984192    -0.00700
C281        C  0.49414115  0.61936504  0.00157033    -0.00700
O282        O  0.46220996  0.79082218  0.21330321    -0.71100
O283        O  0.46213628  0.70857300  0.12019710    -0.72100
O284        O  0.46235201  0.70901734  0.21485271    -0.60700
O285        O  0.46226151  0.79037887  0.11864755    -0.69100
O286        O  0.02634839  0.79034994  0.11857476    -0.68700
O287        O  0.02643876  0.70907785  0.21462010    -0.59900
O288        O  0.02620748  0.70853977  0.11996031    -0.72400
O289        O  0.02628111  0.79088783  0.21323344    -0.71200
Cu290      Cu  0.45997678  0.74969724  0.16675588     1.04600
Cu291      Cu  0.02858292  0.74971440  0.16659128     1.04300
C292        C  0.49421980  0.80359799  0.22796133     0.95100
C293        C  0.49412497  0.69581326  0.10538569     0.94200
C294        C  0.49444257  0.69647558  0.22989030     0.86400
C295        C  0.49432648  0.80293695  0.10345787     0.92600
C296        C  0.49412916  0.88004627  0.99844303    -0.00700
C297        C  0.49412087  0.83216019  0.26219229    -0.11400
C298        C  0.49407222  0.85471470  0.29252221    -0.13000
C299        C  0.49436096  0.85381282  0.03748640    -0.11400
C300        C  0.49440845  0.83117830  0.06826493    -0.13000
C301        C  0.49457799  0.66823553  0.26508441    -0.11400
C302        C  0.49450620  0.64560005  0.29586230    -0.13000
C303        C  0.49398160  0.66725063  0.07115504    -0.11400
C304        C  0.49395511  0.64469488  0.04082598    -0.13000
C305        C  0.45473320  0.93258110  0.96095075    -0.11500
C306        C  0.45835336  0.90600030  0.99651429     0.10600
C307        C  0.43058393  0.90708328  0.03090232    -0.11500
C308        C  0.40210138  0.93561992  0.03127462    -0.11500
C309        C  0.40043050  0.96401983  0.99727243     0.10600
C310        C  0.42635113  0.96104015  0.96133433    -0.11500
H311        H  0.47531210  0.93249659  0.93378228     0.14200
H312        H  0.43161999  0.88711621  0.05881400     0.14600
H313        H  0.38265028  0.93618711  0.05942948     0.14600
H314        H  0.42578807  0.98213239  0.93442708     0.14600
C315        C  0.45461811  0.56679050  0.03893565    -0.11500
C316        C  0.45835464  0.59340258  0.00341044     0.10600
C317        C  0.43070206  0.59233249  0.30229885    -0.11500
C318        C  0.40222827  0.56378051  0.30183654    -0.11500
C319        C  0.40044782  0.53535420  0.00246958     0.10600
C320        C  0.42624850  0.53831445  0.03845942    -0.11500
H321        H  0.47510157  0.56686331  0.06614530     0.14600
H322        H  0.43182663  0.61232293  0.27441145     0.14600
H323        H  0.38287030  0.56322586  0.27364741     0.14600
H324        H  0.42559560  0.51720241  0.06534563     0.14600
C325        C  0.34871877  0.00015287  0.29401035    -0.11400
C326        C  0.32615820  0.00024411  0.26346950    -0.13000
C327        C  0.34862181  0.99925164  0.03898091    -0.11400
C328        C  0.32604837  0.99917293  0.06956245    -0.13000
C329        C  0.06175779  0.95978437  0.03751409    -0.11500
C330        C  0.08791587  0.96393747  0.00188649     0.10600
C331        C  0.08631893  0.93675143  0.96727253    -0.11500
C332        C  0.05771078  0.90832275  0.96679019    -0.11500
C333        C  0.02975743  0.90612493  0.00090578     0.10600
C334        C  0.03322606  0.93147749  0.03701019    -0.11500
H335        H  0.06223237  0.97990179  0.39818740     0.14600
H336        H  0.10593572  0.93822279  0.93929177     0.14600
H337        H  0.05674827  0.88932116  0.93850162     0.14600
H338        H  0.01249489  0.93049937  0.06401634     0.14600
C339        C  0.06187892  0.53960404  0.29603210    -0.11500
C340        C  0.08791174  0.53546766  0.99838381     0.10600
C341        C  0.08620553  0.56267175  0.03297160    -0.11500
C342        C  0.05760971  0.59110816  0.03336875    -0.11500
C343        C  0.02977805  0.59329320  0.99919127     0.10600
C344        C  0.03336336  0.56792068  0.29644819    -0.11500
H345        H  0.06244308  0.51947228  0.26870630     0.14600
H346        H  0.10572460  0.56120997  0.06099200     0.14600
H347        H  0.05655677  0.61012524  0.06164054     0.14600
H348        H  0.01273014  0.56888769  0.26939734     0.14600
C349        C  0.13975024  0.00056050  0.29435335    -0.11400
C350        C  0.16235159  0.00068081  0.26379008    -0.13000
C351        C  0.16224343  0.99877582  0.06985249    -0.11400
C352        C  0.13965478  0.99888222  0.03933052    -0.13000
C353        C  0.11393708  0.49971102  0.66682984    -0.00700
O354        O  0.20328730  0.53133451  0.45196102    -0.71100
O355        O  0.28513483  0.53210649  0.54653473    -0.72100
O356        O  0.28503017  0.53145877  0.45188580    -0.60700
O357        O  0.20339343  0.53224997  0.54662955    -0.69100
O358        O  0.20332814  0.96811626  0.54820090    -0.68700
O359        O  0.28505843  0.96732250  0.45331103    -0.59900
O360        O  0.28507014  0.96797169  0.54795929    -0.72400
O361        O  0.20331861  0.96720228  0.45353441    -0.71200
Cu362      Cu  0.24421235  0.53405286  0.49919652     1.04600
Cu363      Cu  0.24419336  0.96538827  0.50080770     1.04300
C364        C  0.19064545  0.99912330  0.43784610     0.95100
C365        C  0.29776110  0.00011676  0.56214302     0.94200
C366        C  0.29768400  0.99930931  0.43765373     0.86400
C367        C  0.19072198  0.00033063  0.56236542     0.92600
C368        C  0.37442996  0.49969424  0.33317595    -0.00700
C369        C  0.49414028  0.61936535  0.33490389    -0.00700
O370        O  0.46220995  0.79082270  0.54663676    -0.71100
O371        O  0.46213586  0.70857373  0.45353057    -0.72100
O372        O  0.46235198  0.70901776  0.54818609    -0.60700
O373        O  0.46226109  0.79037958  0.45198102    -0.69100
O374        O  0.02634804  0.79035047  0.45190797    -0.68700
O375        O  0.02643898  0.70907808  0.54795307    -0.59900
O376        O  0.02620713  0.70854027  0.45329333    -0.72400
O377        O  0.02628110  0.79088821  0.54656676    -0.71200
Cu378      Cu  0.45997658  0.74969777  0.50008942     1.04600
Cu379      Cu  0.02858277  0.74971480  0.49992442     1.04300
C380        C  0.49421985  0.80359832  0.56129484     0.95100
C381        C  0.49412445  0.69581392  0.43871891     0.94200
C382        C  0.49444259  0.69647599  0.56322351     0.86400
C383        C  0.49432602  0.80293767  0.43679127     0.92600
C384        C  0.49412836  0.88004662  0.33177608    -0.00700
C385        C  0.49412106  0.83216032  0.59552589    -0.11400
C386        C  0.49407252  0.85471480  0.62585578    -0.13000
C387        C  0.49436040  0.85381317  0.37081942    -0.11400
C388        C  0.49440792  0.83117882  0.40159809    -0.13000
C389        C  0.49457806  0.66823565  0.59841733    -0.11400
C390        C  0.49450626  0.64560011  0.62919519    -0.13000
C391        C  0.49398099  0.66725112  0.40448847    -0.11400
C392        C  0.49395448  0.64469521  0.37415955    -0.13000
C393        C  0.45473210  0.93258138  0.29428431    -0.11500
C394        C  0.45835253  0.90600069  0.32984783     0.10600
C395        C  0.43058340  0.90708374  0.36423641    -0.11500
C396        C  0.40210090  0.93562045  0.36460904    -0.11500
C397        C  0.40042968  0.96402012  0.33060669     0.10600
C398        C  0.42635012  0.96104052  0.29466825    -0.11500
H399        H  0.47531066  0.93249686  0.26711548     0.14200
H400        H  0.43161999  0.88711697  0.39214802     0.14600
H401        H  0.38264984  0.93618791  0.39276475     0.14600
H402        H  0.42578671  0.98213217  0.26776158     0.14600
C403        C  0.45461721  0.56679125  0.37226929    -0.11500
C404        C  0.45835375  0.59340311  0.33674391     0.10600
C405        C  0.43070193  0.59233235  0.63563124    -0.11500
C406        C  0.40222818  0.56378036  0.63516899    -0.11500
C407        C  0.40044689  0.53535489  0.33580335     0.10600
C408        C  0.42624760  0.53831521  0.37179317    -0.11500
H409        H  0.47510058  0.56686387  0.39947866     0.14600
H410        H  0.43182669  0.61232287  0.60774348     0.14600
H411        H  0.38286972  0.56322558  0.60697949     0.14600
H412        H  0.42559463  0.51720395  0.39867900     0.14600
C413        C  0.34871862  0.00015298  0.62734258    -0.11400
C414        C  0.32615759  0.00024417  0.59680214    -0.13000
C415        C  0.34862096  0.99925203  0.37231476    -0.11400
C416        C  0.32604735  0.99917315  0.40289610    -0.13000
C417        C  0.06175737  0.95978445  0.37084669    -0.11500
C418        C  0.08791511  0.96393783  0.33521866     0.10600
C419        C  0.08631765  0.93675222  0.30060431    -0.11500
C420        C  0.05770943  0.90832359  0.30012223    -0.11500
C421        C  0.02975655  0.90612540  0.33423849     0.10600
C422        C  0.03322556  0.93147764  0.37034306    -0.11500
H423        H  0.06223174  0.97990286  0.73152201     0.14600
H424        H  0.10593406  0.93822396  0.27262245     0.14600
H425        H  0.05674659  0.88932234  0.27183395     0.14600
H426        H  0.01249496  0.93049935  0.39734936     0.14600
C427        C  0.06187871  0.53960362  0.62936577    -0.11500
C428        C  0.08791092  0.53546797  0.33171647     0.10600
C429        C  0.08620454  0.56267179  0.36630448    -0.11500
C430        C  0.05760862  0.59110818  0.36670190    -0.11500
C431        C  0.02977697  0.59329344  0.33252455     0.10600
C432        C  0.03336335  0.56792040  0.62978152    -0.11500
H433        H  0.06244287  0.51947111  0.60203889     0.14600
H434        H  0.10572315  0.56121012  0.39432403     0.14600
H435        H  0.05655608  0.61012509  0.39497357     0.14600
H436        H  0.01273002  0.56888737  0.60273125     0.14600
C437        C  0.13975011  0.00056034  0.62768760    -0.11400
C438        C  0.16235109  0.00068069  0.59712394    -0.13000
C439        C  0.16224224  0.99877605  0.40318547    -0.11400
C440        C  0.13965386  0.99888248  0.37266315    -0.13000
C441        C  0.11393796  0.49971076  0.00016309    -0.00700
O442        O  0.20328814  0.53133445  0.78529468    -0.71100
O443        O  0.28513600  0.53210626  0.87986812    -0.72100
O444        O  0.28503099  0.53145873  0.78521899    -0.60700
O445        O  0.20339454  0.53224964  0.87996312    -0.69100
O446        O  0.20332930  0.96811615  0.88153443    -0.68700
O447        O  0.28505928  0.96732256  0.78664409    -0.59900
O448        O  0.28507132  0.96797135  0.88129257    -0.72400
O449        O  0.20331939  0.96720235  0.78686788    -0.71200
Cu450      Cu  0.24421330  0.53405266  0.83253001     1.04600
Cu451      Cu  0.24419436  0.96538818  0.83414098     1.04300
C452        C  0.19064602  0.99912332  0.77117977     0.95100
C453        C  0.29776226  0.00011648  0.89547628     0.94200
C454        C  0.29768469  0.99930932  0.77098670     0.86400
C455        C  0.19072302  0.00033042  0.89569888     0.92600
C456        C  0.37442977  0.49969422  0.66650824    -0.00700
C457        C  0.49414019  0.61936534  0.66823684    -0.00700
O458        O  0.46221064  0.79082224  0.87997038    -0.71100
O459        O  0.46213611  0.70857330  0.78686403    -0.72100
O460        O  0.46235277  0.70901737  0.88151964    -0.60700
O461        O  0.46226134  0.79037926  0.78531475    -0.69100
O462        O  0.02634818  0.79035014  0.78524104    -0.68700
O463        O  0.02643946  0.70907774  0.88128617    -0.59900
O464        O  0.02620707  0.70853987  0.78662638    -0.72400
O465        O  0.02628174  0.79088780  0.87989974    -0.71200
Cu466      Cu  0.45997704  0.74969740  0.83342297     1.04600
Cu467      Cu  0.02858315  0.74971448  0.83325747     1.04300
C468        C  0.49422064  0.80359790  0.89462814     0.95100
C469        C  0.49412462  0.69581360  0.77205205     0.94200
C470        C  0.49444346  0.69647557  0.89655679     0.86400
C471        C  0.49432616  0.80293725  0.77012455     0.92600
C472        C  0.49412842  0.88004659  0.66510968    -0.00700
C473        C  0.49412196  0.83215998  0.92885918    -0.11400
C474        C  0.49407335  0.85471444  0.95918911    -0.13000
C475        C  0.49436017  0.85381317  0.70415300    -0.11400
C476        C  0.49440771  0.83117870  0.73493159    -0.13000
C477        C  0.49457894  0.66823533  0.93175075    -0.11400
C478        C  0.49450721  0.64559977  0.96252862    -0.13000
C479        C  0.49398087  0.66725095  0.73782155    -0.11400
C480        C  0.49395418  0.64469520  0.70749250    -0.13000
C481        C  0.45473237  0.93258131  0.62761760    -0.11500
C482        C  0.45835261  0.90600055  0.66318103     0.10600
C483        C  0.43058322  0.90708348  0.69756889    -0.11500
C484        C  0.40210054  0.93562018  0.69794124    -0.11500
C485        C  0.40042954  0.96402000  0.66393898     0.10600
C486        C  0.42635021  0.96104046  0.62800113    -0.11500
H487        H  0.47531050  0.93249704  0.60044947     0.14200
H488        H  0.43161931  0.88711675  0.72548067     0.14600
H489        H  0.38265004  0.93618709  0.72609504     0.14600
H490        H  0.42578706  0.98213136  0.60109505     0.14600
C491        C  0.45461695  0.56679093  0.70560166    -0.11500
C492        C  0.45835353  0.59340305  0.67007636     0.10600
C493        C  0.43070308  0.59233181  0.96896519    -0.11500
C494        C  0.40222927  0.56377982  0.96850288    -0.11500
C495        C  0.40044678  0.53535465  0.66913570     0.10600
C496        C  0.42624740  0.53831486  0.70512544    -0.11500
H497        H  0.47509959  0.56686402  0.73281066     0.14600
H498        H  0.43182758  0.61232161  0.94107836     0.14600
H499        H  0.38287123  0.56322551  0.94031407     0.14600
H500        H  0.42559478  0.51720260  0.73201165     0.14600
C501        C  0.34871941  0.00015260  0.96067620    -0.11400
C502        C  0.32615854  0.00024379  0.93013560    -0.13000
C503        C  0.34862113  0.99925198  0.70564725    -0.11400
C504        C  0.32604759  0.99917319  0.73622864    -0.13000
C505        C  0.06175699  0.95978466  0.70418105    -0.11500
C506        C  0.08791494  0.96393781  0.66855331     0.10600
C507        C  0.08631797  0.93675181  0.63393919    -0.11500
C508        C  0.05770978  0.90832320  0.63345687    -0.11500
C509        C  0.02975649  0.90612532  0.66757260     0.10600
C510        C  0.03322523  0.93147783  0.70367713    -0.11500
H511        H  0.06223243  0.97990210  0.06485457     0.14600
H512        H  0.10593457  0.93822315  0.60595824     0.14600
H513        H  0.05674709  0.88932202  0.60516821     0.14600
H514        H  0.01249397  0.93049948  0.73068345     0.14600
C515        C  0.06187975  0.53960350  0.96269922    -0.11500
C516        C  0.08791063  0.53546774  0.66505028     0.10600
C517        C  0.08620434  0.56267198  0.69963811    -0.11500
C518        C  0.05760855  0.59110840  0.70003519    -0.11500
C519        C  0.02977699  0.59329337  0.66585787     0.10600
C520        C  0.03336437  0.56792024  0.96311502    -0.11500
H521        H  0.06244380  0.51947147  0.93537345     0.14600
H522        H  0.10572300  0.56121054  0.72765775     0.14600
H523        H  0.05655566  0.61012544  0.72830711     0.14600
H524        H  0.01273138  0.56888735  0.93606406     0.14600
C525        C  0.13975097  0.00056012  0.96102073    -0.11400
C526        C  0.16235219  0.00068030  0.93045733    -0.13000
C527        C  0.16224252  0.99877621  0.73651944    -0.11400
C528        C  0.13965392  0.99888264  0.70599732    -0.13000
C529        C  0.61393735  0.99971104  0.33349557    -0.00700
O530        O  0.70328886  0.03133445  0.11862762    -0.71100
O531        O  0.78513606  0.03210630  0.21320153    -0.72100
O532        O  0.78503172  0.03145870  0.11855245    -0.60700
O533        O  0.70339459  0.03224995  0.21329602    -0.69100
O534        O  0.70332913  0.46811630  0.21486768    -0.68700
O535        O  0.78505964  0.46732246  0.11997790    -0.59900
O536        O  0.78507114  0.46797169  0.21462624    -0.72400
O537        O  0.70331972  0.46720223  0.12020114    -0.71200
Cu538      Cu  0.74421371  0.03405272  0.16586317     1.04600
Cu539      Cu  0.74419444  0.46538820  0.16747447     1.04300
C540        C  0.69064663  0.49912320  0.10451284     0.95100
C541        C  0.79776198  0.50011673  0.22881006     0.94200
C542        C  0.79768514  0.49930918  0.10432033     0.86400
C543        C  0.69072272  0.50033063  0.22903187     0.92600
C544        C  0.87443081  0.99969382  0.99984188    -0.00700
C545        C  0.99414122  0.11936503  0.00157027    -0.00700
O546        O  0.96220987  0.29082225  0.21330319    -0.71100
O547        O  0.96213646  0.20857310  0.12019718    -0.72100
O548        O  0.96235208  0.20901739  0.21485276    -0.60700
O549        O  0.96226149  0.29037895  0.11864753    -0.69100
O550        O  0.52634832  0.29034992  0.11857478    -0.68700
O551        O  0.52643895  0.20907776  0.21462008    -0.59900
O552        O  0.52620742  0.20853974  0.11996032    -0.72400
O553        O  0.52628110  0.29088780  0.21323352    -0.71200
Cu554      Cu  0.95997679  0.24969723  0.16675592     1.04600
Cu555      Cu  0.52858296  0.24971440  0.16659131     1.04300
C556        C  0.99421964  0.30359799  0.22796138     0.95100
C557        C  0.99412516  0.19581334  0.10538569     0.94200
C558        C  0.99444265  0.19647562  0.22989031     0.86400
C559        C  0.99432647  0.30293701  0.10345788     0.92600
C560        C  0.99412920  0.38004626  0.99844295    -0.00700
C561        C  0.99412069  0.33216018  0.26219224    -0.11400
C562        C  0.99407220  0.35471460  0.29252221    -0.13000
C563        C  0.99436090  0.35381284  0.03748630    -0.11400
C564        C  0.99440839  0.33117831  0.06826483    -0.13000
C565        C  0.99457805  0.16823550  0.26508433    -0.11400
C566        C  0.99450624  0.14560001  0.29586221    -0.13000
C567        C  0.99398182  0.16725068  0.07115499    -0.11400
C568        C  0.99395518  0.14469483  0.04082599    -0.13000
C569        C  0.95473306  0.43258113  0.96095071    -0.11500
C570        C  0.95835335  0.40600034  0.99651427     0.10600
C571        C  0.93058392  0.40708327  0.03090235    -0.11500
C572        C  0.90210137  0.43561995  0.03127465    -0.11500
C573        C  0.90043036  0.46401981  0.99727236     0.10600
C574        C  0.92635100  0.46104023  0.96133429    -0.11500
H575        H  0.97531187  0.43249658  0.93378224     0.14200
H576        H  0.93162009  0.38711649  0.05881400     0.14600
H577        H  0.88265028  0.43618697  0.05942939     0.14600
H578        H  0.92578796  0.48213246  0.93442701     0.14600
C579        C  0.95461809  0.06679069  0.03893528    -0.11500
C580        C  0.95835466  0.09340267  0.00341014     0.10600
C581        C  0.93070199  0.09233233  0.30229886    -0.11500
C582        C  0.90222820  0.06378036  0.30183665    -0.11500
C583        C  0.90044785  0.03535429  0.00246941     0.10600
C584        C  0.92624848  0.03831456  0.03845912    -0.11500
H585        H  0.97510079  0.06686347  0.06614437     0.14600
H586        H  0.93182652  0.11232223  0.27441206     0.14600
H587        H  0.88286978  0.06322592  0.27364707     0.14600
H588        H  0.92559570  0.01720333  0.06534477     0.14600
C589        C  0.84871871  0.50015289  0.29401035    -0.11400
C590        C  0.82615805  0.50024403  0.26346961    -0.13000
C591        C  0.84862180  0.49925159  0.03898091    -0.11400
C592        C  0.82604830  0.49917290  0.06956240    -0.13000
C593        C  0.56175778  0.45978448  0.03751423    -0.11500
C594        C  0.58791561  0.46393770  0.00188672     0.10600
C595        C  0.58631874  0.43675141  0.96727271    -0.11500
C596        C  0.55771051  0.40832275  0.96679032    -0.11500
C597        C  0.52975732  0.40612488  0.00090574     0.10600
C598        C  0.53322601  0.43147759  0.03701022    -0.11500
H599        H  0.56223214  0.47990201  0.39818747     0.14600
H600        H  0.60593464  0.43822293  0.93929241     0.14600
H601        H  0.55674816  0.38932099  0.93850146     0.14600
H602        H  0.51249551  0.43049900  0.06401588     0.14600
C603        C  0.56187901  0.03960415  0.29603215    -0.11500
C604        C  0.58791169  0.03546761  0.99838383     0.10600
C605        C  0.58620552  0.06267189  0.03297163    -0.11500
C606        C  0.55760975  0.09110825  0.03336880    -0.11500
C607        C  0.52977810  0.09329334  0.99919128     0.10600
C608        C  0.53336350  0.06792073  0.29644822    -0.11500
H609        H  0.56244280  0.01947224  0.26870632     0.14600
H610        H  0.60572489  0.06121012  0.06099211     0.14600
H611        H  0.55655689  0.11012618  0.06164125     0.14600
H612        H  0.51273057  0.06888792  0.26939736     0.14600
C613        C  0.63975019  0.50056063  0.29435331    -0.11400
C614        C  0.66235154  0.50068066  0.26379002    -0.13000
C615        C  0.66224323  0.49877588  0.06985261    -0.11400
C616        C  0.63965470  0.49888226  0.03933051    -0.13000
C617        C  0.61393721  0.99971093  0.66682993    -0.00700
O618        O  0.70328750  0.03133455  0.45196105    -0.71100
O619        O  0.78513498  0.03210641  0.54653477    -0.72100
O620        O  0.78503034  0.03145883  0.45188582    -0.60700
O621        O  0.70339367  0.03224995  0.54662951    -0.69100
O622        O  0.70332813  0.46811635  0.54820096    -0.68700
O623        O  0.78505833  0.46732252  0.45331097    -0.59900
O624        O  0.78507010  0.46797172  0.54795934    -0.72400
O625        O  0.70331855  0.46720233  0.45353448    -0.71200
Cu626      Cu  0.74421248  0.03405285  0.49919653     1.04600
Cu627      Cu  0.74419328  0.46538832  0.50080773     1.04300
C628        C  0.69064542  0.49912330  0.43784608     0.95100
C629        C  0.79776110  0.50011679  0.56214301     0.94200
C630        C  0.79768388  0.49930929  0.43765363     0.86400
C631        C  0.69072191  0.50033067  0.56236541     0.92600
C632        C  0.87442996  0.99969424  0.33317594    -0.00700
C633        C  0.99414034  0.11936532  0.33490385    -0.00700
O634        O  0.96220982  0.29082259  0.54663672    -0.71100
O635        O  0.96213589  0.20857362  0.45353049    -0.72100
O636        O  0.96235204  0.20901768  0.54818603    -0.60700
O637        O  0.96226113  0.29037957  0.45198111    -0.69100
O638        O  0.52634803  0.29035041  0.45190798    -0.68700
O639        O  0.52643890  0.20907810  0.54795304    -0.59900
O640        O  0.52620711  0.20854023  0.45329344    -0.72400
O641        O  0.52628108  0.29088814  0.54656663    -0.71200
Cu642      Cu  0.95997654  0.24969770  0.50008939     1.04600
Cu643      Cu  0.52858280  0.24971480  0.49992441     1.04300
C644        C  0.99421972  0.30359823  0.56129484     0.95100
C645        C  0.99412453  0.19581394  0.43871888     0.94200
C646        C  0.99444266  0.19647597  0.56322345     0.86400
C647        C  0.99432608  0.30293752  0.43679123     0.92600
C648        C  0.99412824  0.38004656  0.33177605    -0.00700
C649        C  0.99412094  0.33216037  0.59552591    -0.11400
C650        C  0.99407237  0.35471479  0.62585587    -0.13000
C651        C  0.99436023  0.35381314  0.37081940    -0.11400
C652        C  0.99440786  0.33117881  0.40159812    -0.13000
C653        C  0.99457802  0.16823568  0.59841736    -0.11400
C654        C  0.99450650  0.14560010  0.62919520    -0.13000
C655        C  0.99398100  0.16725115  0.40448841    -0.11400
C656        C  0.99395458  0.14469511  0.37415961    -0.13000
C657        C  0.95473188  0.43258121  0.29428463    -0.11500
C658        C  0.95835228  0.40600054  0.32984801     0.10600
C659        C  0.93058323  0.40708367  0.36423656    -0.11500
C660        C  0.90210069  0.43562042  0.36460922    -0.11500
C661        C  0.90042949  0.46402011  0.33060698     0.10600
C662        C  0.92634986  0.46104039  0.29466862    -0.11500
H663        H  0.97530952  0.43249669  0.26711633     0.14200
H664        H  0.93161957  0.38711687  0.39214789     0.14600
H665        H  0.88264976  0.43618765  0.39276466     0.14600
H666        H  0.92578663  0.48213125  0.26776232     0.14600
C667        C  0.95461716  0.06679108  0.37226930    -0.11500
C668        C  0.95835370  0.09340301  0.33674390     0.10600
C669        C  0.93070222  0.09233252  0.63563155    -0.11500
C670        C  0.90222847  0.06378052  0.63516899    -0.11500
C671        C  0.90044680  0.03535477  0.33580339     0.10600
C672        C  0.92624749  0.03831502  0.37179315    -0.11500
H673        H  0.97509994  0.06686391  0.39947800     0.14600
H674        H  0.93182702  0.11232291  0.60774381     0.14600
H675        H  0.88287050  0.06322589  0.60697985     0.14600
H676        H  0.92559479  0.01720308  0.39867934     0.14600
C677        C  0.84871849  0.50015295  0.62734266    -0.11400
C678        C  0.82615753  0.50024405  0.59680219    -0.13000
C679        C  0.84862079  0.49925191  0.37231478    -0.11400
C680        C  0.82604719  0.49917321  0.40289607    -0.13000
C681        C  0.56175719  0.45978447  0.37084676    -0.11500
C682        C  0.58791491  0.46393788  0.33521869     0.10600
C683        C  0.58631750  0.43675219  0.30060440    -0.11500
C684        C  0.55770933  0.40832355  0.30012225    -0.11500
C685        C  0.52975642  0.40612537  0.33423840     0.10600
C686        C  0.53322544  0.43147760  0.37034302    -0.11500
H687        H  0.56223184  0.47990200  0.73152166     0.14600
H688        H  0.60593392  0.43822417  0.27262227     0.14600
H689        H  0.55674628  0.38932228  0.27183361     0.14600
H690        H  0.51249469  0.43049905  0.39734937     0.14600
C691        C  0.56187897  0.03960358  0.62936602    -0.11500
C692        C  0.58791102  0.03546796  0.33171665     0.10600
C693        C  0.58620470  0.06267183  0.36630471    -0.11500
C694        C  0.55760877  0.09110818  0.36670215    -0.11500
C695        C  0.52977725  0.09329352  0.33252457     0.10600
C696        C  0.53336360  0.06792035  0.62978176    -0.11500
H697        H  0.56244295  0.01947112  0.60203914     0.14600
H698        H  0.60572404  0.06121027  0.39432472     0.14600
H699        H  0.55655575  0.11012501  0.39497406     0.14600
H700        H  0.51273103  0.06888752  0.60273202     0.14600
C701        C  0.63975008  0.50056040  0.62768769    -0.11400
C702        C  0.66235104  0.50068067  0.59712399    -0.13000
C703        C  0.66224222  0.49877615  0.40318542    -0.11400
C704        C  0.63965380  0.49888237  0.37266315    -0.13000
C705        C  0.61393801  0.99971064  0.00016302    -0.00700
O706        O  0.70328816  0.03133449  0.78529474    -0.71100
O707        O  0.78513604  0.03210621  0.87986810    -0.72100
O708        O  0.78503104  0.03145875  0.78521904    -0.60700
O709        O  0.70339462  0.03224973  0.87996306    -0.69100
O710        O  0.70332914  0.46811601  0.88153436    -0.68700
O711        O  0.78505910  0.46732250  0.78664411    -0.59900
O712        O  0.78507108  0.46797148  0.88129258    -0.72400
O713        O  0.70331918  0.46720227  0.78686791    -0.71200
Cu714      Cu  0.74421340  0.03405270  0.83252999     1.04600
Cu715      Cu  0.74419422  0.46538813  0.83414097     1.04300
C716        C  0.69064589  0.49912327  0.77117974     0.95100
C717        C  0.79776215  0.50011654  0.89547624     0.94200
C718        C  0.79768445  0.49930927  0.77098664     0.86400
C719        C  0.69072298  0.50033030  0.89569897     0.92600
C720        C  0.87442999  0.99969424  0.66650823    -0.00700
C721        C  0.99414039  0.11936537  0.66823688    -0.00700
O722        O  0.96221060  0.29082220  0.87997038    -0.71100
O723        O  0.96213610  0.20857326  0.78686409    -0.72100
O724        O  0.96235277  0.20901731  0.88151973    -0.60700
O725        O  0.96226129  0.29037921  0.78531467    -0.69100
O726        O  0.52634811  0.29035009  0.78524105    -0.68700
O727        O  0.52643962  0.20907770  0.88128619    -0.59900
O728        O  0.52620723  0.20853989  0.78662641    -0.72400
O729        O  0.52628178  0.29088776  0.87989981    -0.71200
Cu730      Cu  0.95997703  0.24969736  0.83342298     1.04600
Cu731      Cu  0.52858320  0.24971447  0.83325749     1.04300
C732        C  0.99422051  0.30359786  0.89462817     0.95100
C733        C  0.99412462  0.19581358  0.77205210     0.94200
C734        C  0.99444348  0.19647542  0.89655673     0.86400
C735        C  0.99432604  0.30293727  0.77012458     0.92600
C736        C  0.99412818  0.38004658  0.66510972    -0.00700
C737        C  0.99412182  0.33215997  0.92885912    -0.11400
C738        C  0.99407333  0.35471436  0.95918909    -0.13000
C739        C  0.99435999  0.35381314  0.70415303    -0.11400
C740        C  0.99440755  0.33117874  0.73493166    -0.13000
C741        C  0.99457903  0.16823532  0.93175077    -0.11400
C742        C  0.99450719  0.14559973  0.96252859    -0.13000
C743        C  0.99398088  0.16725097  0.73782155    -0.11400
C744        C  0.99395437  0.14469516  0.70749256    -0.13000
C745        C  0.95473237  0.43258142  0.62761741    -0.11500
C746        C  0.95835241  0.40600066  0.66318098     0.10600
C747        C  0.93058291  0.40708364  0.69756894    -0.11500
C748        C  0.90210034  0.43562028  0.69794113    -0.11500
C749        C  0.90042944  0.46402009  0.66393882     0.10600
C750        C  0.92635028  0.46104052  0.62800087    -0.11500
H751        H  0.97531124  0.43249698  0.60044897     0.14200
H752        H  0.93161883  0.38711649  0.72548064     0.14600
H753        H  0.88264919  0.43618729  0.72609555     0.14600
H754        H  0.92578747  0.48213241  0.60109431     0.14600
C755        C  0.95461722  0.06679116  0.70560178    -0.11500
C756        C  0.95835391  0.09340308  0.67007659     0.10600
C757        C  0.93070313  0.09233192  0.96896501    -0.11500
C758        C  0.90222929  0.06377984  0.96850279    -0.11500
C759        C  0.90044700  0.03535486  0.66913563     0.10600
C760        C  0.92624770  0.03831505  0.70512542    -0.11500
H761        H  0.97510067  0.06686366  0.73281138     0.14600
H762        H  0.93182762  0.11232172  0.94107820     0.14600
H763        H  0.88287135  0.06322527  0.94031406     0.14600
H764        H  0.92559477  0.01720369  0.73201091     0.14600
C765        C  0.84871938  0.50015268  0.96067618    -0.11400
C766        C  0.82615842  0.50024383  0.93013566    -0.13000
C767        C  0.84862092  0.49925203  0.70564729    -0.11400
C768        C  0.82604744  0.49917309  0.73622872    -0.13000
C769        C  0.56175697  0.45978449  0.70418090    -0.11500
C770        C  0.58791487  0.46393777  0.66855315     0.10600
C771        C  0.58631792  0.43675170  0.63393899    -0.11500
C772        C  0.55770965  0.40832316  0.63345654    -0.11500
C773        C  0.52975650  0.40612517  0.66757235     0.10600
C774        C  0.53322514  0.43147776  0.70367684    -0.11500
H775        H  0.56223220  0.47990295  0.06485549     0.14600
H776        H  0.60593452  0.43822340  0.60595805     0.14600
H777        H  0.55674701  0.38932111  0.60516726     0.14600
H778        H  0.51249407  0.43049946  0.73068319     0.14600
C779        C  0.56187963  0.03960358  0.96269918    -0.11500
C780        C  0.58791096  0.03546772  0.66505042     0.10600
C781        C  0.58620463  0.06267185  0.69963827    -0.11500
C782        C  0.55760887  0.09110830  0.70003550    -0.11500
C783        C  0.52977734  0.09329336  0.66585809     0.10600
C784        C  0.53336430  0.06792031  0.96311505    -0.11500
H785        H  0.56244349  0.01947126  0.93537344     0.14600
H786        H  0.60572408  0.06121031  0.72765853     0.14600
H787        H  0.55655580  0.11012540  0.72830740     0.14600
H788        H  0.51273055  0.06888739  0.93606374     0.14600
C789        C  0.63975090  0.50056004  0.96102076    -0.11400
C790        C  0.66235204  0.50068028  0.93045730    -0.13000
C791        C  0.66224248  0.49877619  0.73651939    -0.11400
C792        C  0.63965386  0.49888261  0.70599733    -0.13000
C793        C  0.61393719  0.49971107  0.33349558    -0.00700
O794        O  0.70328878  0.53133443  0.11862766    -0.71100
O795        O  0.78513595  0.53210633  0.21320154    -0.72100
O796        O  0.78503160  0.53145869  0.11855252    -0.60700
O797        O  0.70339447  0.53224990  0.21329601    -0.69100
O798        O  0.70332913  0.96811642  0.21486769    -0.68700
O799        O  0.78505967  0.96732243  0.11997780    -0.59900
O800        O  0.78507113  0.96797160  0.21462625    -0.72400
O801        O  0.70331975  0.96720219  0.12020119    -0.71200
Cu802      Cu  0.74421362  0.53405270  0.16586318     1.04600
Cu803      Cu  0.74419453  0.96538820  0.16747447     1.04300
C804        C  0.69064672  0.99912319  0.10451281     0.95100
C805        C  0.79776206  0.00011667  0.22881001     0.94200
C806        C  0.79768532  0.99930916  0.10432037     0.86400
C807        C  0.69072280  0.00033076  0.22903191     0.92600
C808        C  0.87443070  0.49969382  0.99984184    -0.00700
C809        C  0.99414119  0.61936506  0.00157035    -0.00700
O810        O  0.96220983  0.79082219  0.21330323    -0.71100
O811        O  0.96213644  0.70857298  0.12019709    -0.72100
O812        O  0.96235200  0.70901731  0.21485275    -0.60700
O813        O  0.96226142  0.79037887  0.11864756    -0.69100
O814        O  0.52634846  0.79034994  0.11857477    -0.68700
O815        O  0.52643875  0.70907783  0.21462013    -0.59900
O816        O  0.52620730  0.70853976  0.11996031    -0.72400
O817        O  0.52628122  0.79088783  0.21323345    -0.71200
Cu818      Cu  0.95997673  0.74969723  0.16675591     1.04600
Cu819      Cu  0.52858297  0.74971439  0.16659130     1.04300
C820        C  0.99421967  0.80359799  0.22796134     0.95100
C821        C  0.99412514  0.69581326  0.10538570     0.94200
C822        C  0.99444258  0.69647558  0.22989030     0.86400
C823        C  0.99432640  0.80293694  0.10345788     0.92600
C824        C  0.99412930  0.88004624  0.99844300    -0.00700
C825        C  0.99412072  0.83216019  0.26219229    -0.11400
C826        C  0.99407230  0.85471473  0.29252220    -0.13000
C827        C  0.99436097  0.85381278  0.03748639    -0.11400
C828        C  0.99440840  0.83117829  0.06826494    -0.13000
C829        C  0.99457791  0.66823552  0.26508440    -0.11400
C830        C  0.99450616  0.64560004  0.29586228    -0.13000
C831        C  0.99398163  0.66725063  0.07115505    -0.11400
C832        C  0.99395524  0.64469488  0.04082600    -0.13000
C833        C  0.95473329  0.93258114  0.96095076    -0.11500
C834        C  0.95835350  0.90600030  0.99651426     0.10600
C835        C  0.93058407  0.90708327  0.03090228    -0.11500
C836        C  0.90210148  0.93561992  0.03127465    -0.11500
C837        C  0.90043052  0.96401983  0.99727242     0.10600
C838        C  0.92635120  0.96104020  0.96133436    -0.11500
H839        H  0.97531216  0.93249664  0.93378230     0.14200
H840        H  0.93162031  0.88711622  0.05881407     0.14600
H841        H  0.88265036  0.93618710  0.05942953     0.14600
H842        H  0.92578815  0.98213245  0.93442708     0.14600
C843        C  0.95461808  0.56679052  0.03893555    -0.11500
C844        C  0.95835471  0.59340260  0.00341032     0.10600
C845        C  0.93070189  0.59233252  0.30229863    -0.11500
C846        C  0.90222809  0.56378051  0.30183641    -0.11500
C847        C  0.90044790  0.53535417  0.00246961     0.10600
C848        C  0.92624840  0.53831445  0.03845934    -0.11500
H849        H  0.97510079  0.56686344  0.06614468     0.14600
H850        H  0.93182639  0.61232304  0.27441140     0.14600
H851        H  0.88286960  0.56322591  0.27364696     0.14600
H852        H  0.92559568  0.51720242  0.06534554     0.14600
C853        C  0.84871879  0.00015284  0.29401032    -0.11400
C854        C  0.82615815  0.00024411  0.26346955    -0.13000
C855        C  0.84862191  0.99925156  0.03898094    -0.11400
C856        C  0.82604838  0.99917288  0.06956239    -0.13000
C857        C  0.56175777  0.95978439  0.03751418    -0.11500
C858        C  0.58791566  0.96393745  0.00188657     0.10600
C859        C  0.58631875  0.93675131  0.96727265    -0.11500
C860        C  0.55771053  0.90832268  0.96679034    -0.11500
C861        C  0.52975725  0.90612497  0.00090586     0.10600
C862        C  0.53322602  0.93147757  0.03701027    -0.11500
H863        H  0.56223222  0.97990198  0.39818731     0.14600
H864        H  0.60593488  0.93822276  0.93929234     0.14600
H865        H  0.55674793  0.88932122  0.93850154     0.14600
H866        H  0.51249480  0.93049958  0.06401648     0.14600
C867        C  0.56187893  0.53960412  0.29603218    -0.11500
C868        C  0.58791171  0.53546774  0.99838371     0.10600
C869        C  0.58620541  0.56267176  0.03297153    -0.11500
C870        C  0.55760967  0.59110812  0.03336867    -0.11500
C871        C  0.52977797  0.59329317  0.99919109     0.10600
C872        C  0.53336339  0.56792071  0.29644825    -0.11500
H873        H  0.56244280  0.51947225  0.26870651     0.14600
H874        H  0.60572472  0.56121009  0.06099212     0.14600
H875        H  0.55655671  0.61012522  0.06164051     0.14600
H876        H  0.51273035  0.56888780  0.26939753     0.14600
C877        C  0.63975030  0.00056050  0.29435331    -0.11400
C878        C  0.66235165  0.00068085  0.26379005    -0.13000
C879        C  0.66224335  0.99877586  0.06985254    -0.11400
C880        C  0.63965476  0.99888223  0.03933047    -0.13000
C881        C  0.61393712  0.49971103  0.66682992    -0.00700
O882        O  0.70328738  0.53133453  0.45196108    -0.71100
O883        O  0.78513487  0.53210648  0.54653480    -0.72100
O884        O  0.78503026  0.53145877  0.45188575    -0.60700
O885        O  0.70339356  0.53224997  0.54662945    -0.69100
O886        O  0.70332812  0.96811627  0.54820090    -0.68700
O887        O  0.78505835  0.96732250  0.45331100    -0.59900
O888        O  0.78507004  0.96797171  0.54795936    -0.72400
O889        O  0.70331852  0.96720228  0.45353438    -0.71200
Cu890      Cu  0.74421237  0.53405287  0.49919650     1.04600
Cu891      Cu  0.74419334  0.96538828  0.50080769     1.04300
C892        C  0.69064549  0.99912331  0.43784603     0.95100
C893        C  0.79776117  0.00011675  0.56214298     0.94200
C894        C  0.79768394  0.99930930  0.43765369     0.86400
C895        C  0.69072193  0.00033064  0.56236538     0.92600
C896        C  0.87442987  0.49969424  0.33317598    -0.00700
C897        C  0.99414021  0.61936537  0.33490386    -0.00700
O898        O  0.96220997  0.79082265  0.54663670    -0.71100
O899        O  0.96213607  0.70857371  0.45353055    -0.72100
O900        O  0.96235222  0.70901777  0.54818608    -0.60700
O901        O  0.96226111  0.79037960  0.45198099    -0.69100
O902        O  0.52634801  0.79035048  0.45190795    -0.68700
O903        O  0.52643874  0.70907808  0.54795306    -0.59900
O904        O  0.52620690  0.70854025  0.45329331    -0.72400
O905        O  0.52628121  0.79088818  0.54656672    -0.71200
Cu906      Cu  0.95997663  0.74969776  0.50008939     1.04600
Cu907      Cu  0.52858275  0.74971479  0.49992439     1.04300
C908        C  0.99421979  0.80359832  0.56129485     0.95100
C909        C  0.99412469  0.69581392  0.43871890     0.94200
C910        C  0.99444282  0.69647599  0.56322350     0.86400
C911        C  0.99432604  0.80293767  0.43679127     0.92600
C912        C  0.99412839  0.88004662  0.33177611    -0.00700
C913        C  0.99412106  0.83216033  0.59552591    -0.11400
C914        C  0.99407257  0.85471481  0.62585580    -0.13000
C915        C  0.99436030  0.85381321  0.37081945    -0.11400
C916        C  0.99440781  0.83117883  0.40159809    -0.13000
C917        C  0.99457808  0.66823566  0.59841733    -0.11400
C918        C  0.99450633  0.64560015  0.62919522    -0.13000
C919        C  0.99398112  0.66725112  0.40448846    -0.11400
C920        C  0.99395451  0.64469520  0.37415955    -0.13000
C921        C  0.95473192  0.93258133  0.29428454    -0.11500
C922        C  0.95835243  0.90600064  0.32984805     0.10600
C923        C  0.93058327  0.90708372  0.36423650    -0.11500
C924        C  0.90210078  0.93562050  0.36460904    -0.11500
C925        C  0.90042951  0.96402016  0.33060672     0.10600
C926        C  0.92634997  0.96104056  0.29466845    -0.11500
H927        H  0.97530971  0.93249669  0.26711624     0.14200
H928        H  0.93161958  0.88711690  0.39214796     0.14600
H929        H  0.88264964  0.93618791  0.39276471     0.14600
H930        H  0.92578705  0.98213224  0.26776188     0.14600
C931        C  0.95461706  0.56679130  0.37226906    -0.11500
C932        C  0.95835361  0.59340317  0.33674366     0.10600
C933        C  0.93070213  0.59233237  0.63563151    -0.11500
C934        C  0.90222838  0.56378038  0.63516912    -0.11500
C935        C  0.90044676  0.53535487  0.33580315     0.10600
C936        C  0.92624744  0.53831525  0.37179292    -0.11500
H937        H  0.97509976  0.56686397  0.39947787     0.14600
H938        H  0.93182700  0.61232280  0.60774356     0.14600
H939        H  0.88287049  0.56322549  0.60697987     0.14600
H940        H  0.92559474  0.51720395  0.39867873     0.14600
C941        C  0.84871859  0.00015305  0.62734268    -0.11400
C942        C  0.82615763  0.00024415  0.59680217    -0.13000
C943        C  0.84862091  0.99925203  0.37231477    -0.11400
C944        C  0.82604725  0.99917310  0.40289604    -0.13000
C945        C  0.56175733  0.95978449  0.37084668    -0.11500
C946        C  0.58791505  0.96393786  0.33521865     0.10600
C947        C  0.58631760  0.93675215  0.30060437    -0.11500
C948        C  0.55770942  0.90832349  0.30012229    -0.11500
C949        C  0.52975652  0.90612536  0.33423848     0.10600
C950        C  0.53322559  0.93147763  0.37034304    -0.11500
H951        H  0.56223180  0.97990277  0.73152221     0.14600
H952        H  0.60593415  0.93822383  0.27262248     0.14600
H953        H  0.55674635  0.88932235  0.27183379     0.14600
H954        H  0.51249483  0.93049941  0.39734935     0.14600
C955        C  0.56187890  0.53960356  0.62936591    -0.11500
C956        C  0.58791094  0.53546799  0.33171667     0.10600
C957        C  0.58620464  0.56267183  0.36630468    -0.11500
C958        C  0.55760870  0.59110818  0.36670208    -0.11500
C959        C  0.52977711  0.59329347  0.33252459     0.10600
C960        C  0.53336352  0.56792033  0.62978168    -0.11500
H961        H  0.56244288  0.51947103  0.60203903     0.14600
H962        H  0.60572397  0.56121028  0.39432471     0.14600
H963        H  0.55655571  0.61012504  0.39497387     0.14600
H964        H  0.51273102  0.56888739  0.60273201     0.14600
C965        C  0.63975006  0.00056030  0.62768768    -0.11400
C966        C  0.66235108  0.00068072  0.59712403    -0.13000
C967        C  0.66224230  0.99877608  0.40318547    -0.11400
C968        C  0.63965399  0.99888245  0.37266312    -0.13000
C969        C  0.61393798  0.49971082  0.00016305    -0.00700
O970        O  0.70328803  0.53133446  0.78529466    -0.71100
O971        O  0.78513591  0.53210624  0.87986809    -0.72100
O972        O  0.78503095  0.53145875  0.78521900    -0.60700
O973        O  0.70339449  0.53224966  0.87996310    -0.69100
O974        O  0.70332922  0.96811613  0.88153440    -0.68700
O975        O  0.78505925  0.96732255  0.78664410    -0.59900
O976        O  0.78507124  0.96797137  0.88129258    -0.72400
O977        O  0.70331932  0.96720234  0.78686797    -0.71200
Cu978      Cu  0.74421328  0.53405267  0.83252997     1.04600
Cu979      Cu  0.74419433  0.96538817  0.83414099     1.04300
C980        C  0.69064611  0.99912332  0.77117970     0.95100
C981        C  0.79776229  0.00011648  0.89547623     0.94200
C982        C  0.79768457  0.99930933  0.77098667     0.86400
C983        C  0.69072305  0.00033042  0.89569893     0.92600
C984        C  0.87442981  0.49969424  0.66650823    -0.00700
C985        C  0.99414025  0.61936539  0.66823687    -0.00700
O986        O  0.96221046  0.79082223  0.87997036    -0.71100
O987        O  0.96213619  0.70857331  0.78686404    -0.72100
O988        O  0.96235271  0.70901736  0.88151964    -0.60700
O989        O  0.96226127  0.79037926  0.78531475    -0.69100
O990        O  0.52634827  0.79035014  0.78524104    -0.68700
O991        O  0.52643954  0.70907774  0.88128617    -0.59900
O992        O  0.52620713  0.70853986  0.78662637    -0.72400
O993        O  0.52628192  0.79088779  0.87989973    -0.71200
Cu994      Cu  0.95997699  0.74969738  0.83342296     1.04600
Cu995      Cu  0.52858322  0.74971447  0.83325746     1.04300
C996        C  0.99422045  0.80359790  0.89462814     0.95100
C997        C  0.99412462  0.69581360  0.77205205     0.94200
C998        C  0.99444339  0.69647556  0.89655680     0.86400
C999        C  0.99432609  0.80293725  0.77012455     0.92600
C1000       C  0.99412836  0.88004662  0.66510969    -0.00700
C1001       C  0.99412193  0.83215999  0.92885918    -0.11400
C1002       C  0.99407339  0.85471445  0.95918910    -0.13000
C1003       C  0.99436004  0.85381320  0.70415303    -0.11400
C1004       C  0.99440767  0.83117870  0.73493160    -0.13000
C1005       C  0.99457891  0.66823533  0.93175076    -0.11400
C1006       C  0.99450716  0.64559979  0.96252865    -0.13000
C1007       C  0.99398081  0.66725095  0.73782156    -0.11400
C1008       C  0.99395429  0.64469522  0.70749252    -0.13000
C1009       C  0.95473247  0.93258135  0.62761755    -0.11500
C1010       C  0.95835260  0.90600064  0.66318098     0.10600
C1011       C  0.93058310  0.90708356  0.69756900    -0.11500
C1012       C  0.90210045  0.93562017  0.69794128    -0.11500
C1013       C  0.90042956  0.96401993  0.66393903     0.10600
C1014       C  0.92635031  0.96104038  0.62800101    -0.11500
H1015       H  0.97531134  0.93249723  0.60044894     0.14200
H1016       H  0.93161908  0.88711664  0.72548058     0.14600
H1017       H  0.88264931  0.93618700  0.72609549     0.14600
H1018       H  0.92578699  0.98213131  0.60109491     0.14600
C1019       C  0.95461713  0.56679096  0.70560191    -0.11500
C1020       C  0.95835376  0.59340302  0.67007660     0.10600
C1021       C  0.93070328  0.59233189  0.96896526    -0.11500
C1022       C  0.90222937  0.56377989  0.96850295    -0.11500
C1023       C  0.90044690  0.53535468  0.66913587     0.10600
C1024       C  0.92624759  0.53831485  0.70512567    -0.11500
H1025       H  0.97510056  0.56686396  0.73281155     0.14600
H1026       H  0.93182793  0.61232148  0.94107820     0.14600
H1027       H  0.88287209  0.56322549  0.94031465     0.14600
H1028       H  0.92559474  0.51720261  0.73201187     0.14600
C1029       C  0.84871947  0.00015254  0.96067624    -0.11400
C1030       C  0.82615855  0.00024377  0.93013567    -0.13000
C1031       C  0.84862107  0.99925205  0.70564730    -0.11400
C1032       C  0.82604757  0.99917321  0.73622874    -0.13000
C1033       C  0.56175696  0.95978471  0.70418114    -0.11500
C1034       C  0.58791492  0.96393780  0.66855353     0.10600
C1035       C  0.58631786  0.93675180  0.63393936    -0.11500
C1036       C  0.55770963  0.90832320  0.63345704    -0.11500
C1037       C  0.52975646  0.90612533  0.66757268     0.10600
C1038       C  0.53322520  0.93147790  0.70367715    -0.11500
H1039       H  0.56223277  0.97990203  0.06485480     0.14600
H1040       H  0.60593380  0.93822320  0.60595890     0.14600
H1041       H  0.55674711  0.88932193  0.60516848     0.14600
H1042       H  0.51249388  0.93049960  0.73068350     0.14600
C1043       C  0.56187956  0.53960351  0.96269906    -0.11500
C1044       C  0.58791068  0.53546771  0.66505034     0.10600
C1045       C  0.58620440  0.56267200  0.69963811    -0.11500
C1046       C  0.55760863  0.59110839  0.70003532    -0.11500
C1047       C  0.52977714  0.59329337  0.66585805     0.10600
C1048       C  0.53336423  0.56792024  0.96311485    -0.11500
H1049       H  0.56244382  0.51947147  0.93537326     0.14600
H1050       H  0.60572315  0.56121065  0.72765769     0.14600
H1051       H  0.55655575  0.61012531  0.72830736     0.14600
H1052       H  0.51273048  0.56888732  0.93606329     0.14600
C1053       C  0.63975093  0.00056008  0.96102064    -0.11400
C1054       C  0.66235218  0.00068030  0.93045726    -0.13000
C1055       C  0.66224255  0.99877620  0.73651941    -0.11400
C1056       C  0.63965395  0.99888259  0.70599733    -0.13000
loop_ 
_geom_bond_atom_site_label_1 
_geom_bond_atom_site_label_2 
_geom_bond_distance 
_geom_bond_site_symmetry_2 
_ccdc_geom_bond_type 
C1          C418   1.534       .  S
C1          C164   1.534   1_565  S
C1          C349   1.476   1_565  S
C1          C440   1.477       .  S
O2          Cu10   2.011       .  S
O2          C276   1.277   1_545  A
O3          Cu10   2.010       .  S
O3          C277   1.277       .  A
O4          Cu10   2.007       .  S
O4          C278   1.276   1_545  A
O5          Cu10   2.007       .  S
O5          C279   1.276       .  A
O6          Cu11   2.010       .  S
O6           C15   1.277       .  A
O7          Cu11   2.010       .  S
O7           C14   1.277       .  A
O8          Cu11   2.007       .  S
O8           C13   1.276       .  A
O9          Cu11   2.008       .  S
O9           C12   1.276       .  A
Cu10       Cu275   2.380   1_545  S
Cu11       Cu274   2.380       .  S
C12         O266   1.277       .  A
C12          C87   1.434       .  S
C13         O267   1.277       .  A
C13          C62   1.434       .  S
C14         O268   1.276       .  A
C14          C64   1.433       .  S
C15         O269   1.276       .  A
C15          C86   1.434       .  S
C16          C55   1.533   1_566  S
C16         C309   1.533       .  S
C16         C501   1.476   1_565  S
C16         C327   1.476   1_556  S
C17          C52   1.534       .  S
C17         C607   1.534   1_554  S
C17          C40   1.478       .  S
C17         C214   1.475   1_554  S
O18         Cu26   2.009       .  S
O18          C28   1.276       .  A
O19         Cu26   2.009       .  S
O19          C29   1.276       .  A
O20         Cu26   2.008       .  S
O20          C30   1.276       .  A
O21         Cu26   2.008       .  S
O21          C31   1.276       .  A
O22         Cu27   2.005       .  S
O22         C559   1.276   1_455  A
O23         Cu27   2.005       .  S
O23         C558   1.276   1_455  A
O24         Cu27   2.012       .  S
O24         C557   1.277   1_455  A
O25         Cu27   2.012       .  S
O25         C556   1.277   1_455  A
Cu26       Cu555   2.380       .  S
Cu27       Cu554   2.380   1_455  S
C28         O553   1.277       .  A
C28          C33   1.435       .  S
C29         O552   1.277       .  A
C29          C39   1.435       .  S
C30         O551   1.276       .  A
C30          C37   1.432       .  S
C31         O550   1.276       .  A
C31          C36   1.432       .  S
C32          C42   1.534       .  S
C32         C597   1.534   1_556  S
C32          C35   1.475   1_556  S
C32         C210   1.478       .  S
C33          C34   1.207       .  T
C34         C120   1.478       .  S
C35          C36   1.205       .  T
C37          C38   1.205       .  T
C38         C105   1.475       .  S
C39          C40   1.207       .  T
C41          C42   1.408       .  A
C41          C46   1.394       .  A
C41          H47   1.083       .  S
C42          C43   1.412   1_556  A
C43          C44   1.398       .  A
C43          H48   1.081       .  S
C44          C45   1.411   1_554  A
C44          H49   1.081       .  S
C45         C280   1.533       .  S
C45          C46   1.408       .  A
C46          H50   1.083       .  S
C51          C52   1.408       .  A
C51          C56   1.394       .  A
C51          H57   1.083       .  S
C52         C229   1.412   1_554  A
C53          C54   1.399       .  A
C53         C140   1.412       .  A
C53          H58   1.081       .  S
C54         C143   1.411       .  A
C54          H59   1.081       .  S
C55          C56   1.408       .  A
C55         C230   1.411   1_554  A
C56          H60   1.083       .  S
C61         C368   1.476       .  S
C61          C62   1.206       .  T
C63         C280   1.476   1_554  S
C63          C64   1.206       .  T
C65          C66   1.408       .  A
C65          C70   1.394       .  A
C65         H247   1.083       .  S
C66         C441   1.534       .  S
C66          C67   1.412   1_554  A
C67          C68   1.399       .  A
C67          H72   1.081       .  S
C68          C69   1.411   1_556  A
C68          H73   1.081       .  S
C69         C560   1.534   1_454  S
C69          C70   1.408       .  A
C70          H74   1.083       .  S
H71         C153   1.083       .  S
C75          C80   1.394       .  A
C75         C164   1.408       .  A
C75          H81   1.083       .  S
C76         C177   1.534   1_546  S
C76          C77   1.412   1_556  A
C76         C251   1.408       .  A
C77          C78   1.399       .  A
C77          H82   1.081       .  S
C78          C79   1.411   1_554  A
C78          H83   1.081       .  S
C79         C545   1.534   1_456  S
C79         C256   1.408       .  A
C80         C167   1.408       .  A
C80          H84   1.083       .  S
C85         C265   1.476       .  S
C85          C86   1.206       .  T
C87          C88   1.206       .  T
C88         C441   1.477       .  S
C89         C506   1.534       .  S
C89         C252   1.534   1_565  S
C89         C437   1.476   1_565  S
C89         C528   1.477       .  S
O90         Cu98   2.011       .  S
O90         C364   1.277   1_545  A
O91         Cu98   2.010       .  S
O91         C365   1.277       .  A
O92         Cu98   2.007       .  S
O92         C366   1.276   1_545  A
O93         Cu98   2.007       .  S
O93         C367   1.276       .  A
O94         Cu99   2.010       .  S
O94         C103   1.277       .  A
O95         Cu99   2.010       .  S
O95         C102   1.277       .  A
O96         Cu99   2.007       .  S
O96         C101   1.276       .  A
O97         Cu99   2.008       .  S
O97         C100   1.276       .  A
Cu98       Cu363   2.380   1_545  S
Cu99       Cu362   2.380       .  S
C100        O354   1.277       .  A
C100        C175   1.434       .  S
C101        O355   1.277       .  A
C101        C150   1.434       .  S
C102        O356   1.276       .  A
C102        C152   1.433       .  S
C103        O357   1.276       .  A
C103        C174   1.434       .  S
C104        C397   1.533       .  S
C104        C143   1.533   1_565  S
C104        C325   1.476   1_565  S
C104        C415   1.476       .  S
C105        C140   1.534       .  S
C105        C695   1.534       .  S
C105        C128   1.478       .  S
O106       Cu114   2.009       .  S
O106        C116   1.276       .  A
O107       Cu114   2.009       .  S
O107        C117   1.276       .  A
O108       Cu114   2.008       .  S
O108        C118   1.276       .  A
O109       Cu114   2.008       .  S
O109        C119   1.276       .  A
O110       Cu115   2.005       .  S
O110        C647   1.276   1_455  A
O111       Cu115   2.005       .  S
O111        C646   1.276   1_455  A
O112       Cu115   2.012       .  S
O112        C645   1.277   1_455  A
O113       Cu115   2.012       .  S
O113        C644   1.277   1_455  A
Cu114      Cu643   2.380       .  S
Cu115      Cu642   2.380   1_455  S
C116        O641   1.277       .  A
C116        C121   1.435       .  S
C117        O640   1.277       .  A
C117        C127   1.435       .  S
C118        O639   1.276       .  A
C118        C125   1.432       .  S
C119        O638   1.276       .  A
C119        C124   1.432       .  S
C120        C130   1.534       .  S
C120        C685   1.534       .  S
C120        C123   1.475       .  S
C121        C122   1.207       .  T
C122        C208   1.478       .  S
C123        C124   1.205       .  T
C125        C126   1.205       .  T
C126        C193   1.475       .  S
C127        C128   1.207       .  T
C129        C130   1.408       .  A
C129        C134   1.394       .  A
C129        H135   1.083       .  S
C130        C131   1.412       .  A
C131        C132   1.398       .  A
C131        H136   1.081       .  S
C132        C133   1.411       .  A
C132        H137   1.081       .  S
C133        C368   1.533       .  S
C133        C134   1.408       .  A
C134        H138   1.083       .  S
C139        C140   1.408       .  A
C139        C144   1.394       .  A
C139        H145   1.083       .  S
C141        C228   1.412       .  A
C141        C142   1.399       .  A
C141        H146   1.081       .  S
C142        C231   1.411       .  A
C142        H147   1.081       .  S
C143        C144   1.408       .  A
C144        H148   1.083       .  S
C149        C456   1.476       .  S
C149        C150   1.206       .  T
C151        C368   1.476       .  S
C151        C152   1.206       .  T
C153        C154   1.408       .  A
C153        C158   1.394       .  A
C154        C265   1.534       .  S
C154        C155   1.412       .  A
C155        C156   1.399       .  A
C155        H160   1.081       .  S
C156        C157   1.411       .  A
C156        H161   1.081       .  S
C157        C648   1.534   1_455  S
C157        C158   1.408       .  A
C158        H162   1.083       .  S
H159        C241   1.083       .  S
C163        C252   1.408       .  A
C163        C168   1.394       .  A
C163        H169   1.083       .  S
C164        C165   1.412       .  A
C165        C166   1.399       .  A
C165        H170   1.081       .  S
C166        C167   1.411       .  A
C166        H171   1.081       .  S
C167        C633   1.534   1_455  S
C168        C255   1.408       .  A
C168        H172   1.083       .  S
C173        C353   1.476       .  S
C173        C174   1.206       .  T
C175        C176   1.206       .  T
C176        C265   1.477       .  S
C177        C330   1.534       .  S
C177        C525   1.476   1_564  S
C177        C352   1.477       .  S
O178       Cu186   2.011       .  S
O178        C452   1.277   1_545  A
O179       Cu186   2.010       .  S
O179        C453   1.277       .  A
O180       Cu186   2.007       .  S
O180        C454   1.276   1_545  A
O181       Cu186   2.007       .  S
O181        C455   1.276       .  A
O182       Cu187   2.010       .  S
O182        C191   1.277       .  A
O183       Cu187   2.010       .  S
O183        C190   1.277       .  A
O184       Cu187   2.007       .  S
O184        C189   1.276       .  A
O185       Cu187   2.008       .  S
O185        C188   1.276       .  A
Cu186      Cu451   2.380   1_545  S
Cu187      Cu450   2.380       .  S
C188        O442   1.277       .  A
C188        C263   1.434       .  S
C189        O443   1.277       .  A
C189        C238   1.434       .  S
C190        O444   1.276       .  A
C190        C240   1.433       .  S
C191        O445   1.276       .  A
C191        C262   1.434       .  S
C192        C485   1.533       .  S
C192        C231   1.533   1_565  S
C192        C413   1.476   1_565  S
C192        C503   1.476       .  S
C193        C228   1.534       .  S
C193        C783   1.534       .  S
C193        C216   1.478       .  S
O194       Cu202   2.009       .  S
O194        C204   1.276       .  A
O195       Cu202   2.009       .  S
O195        C205   1.276       .  A
O196       Cu202   2.008       .  S
O196        C206   1.276       .  A
O197       Cu202   2.008       .  S
O197        C207   1.276       .  A
O198       Cu203   2.005       .  S
O198        C735   1.276   1_455  A
O199       Cu203   2.005       .  S
O199        C734   1.276   1_455  A
O200       Cu203   2.012       .  S
O200        C733   1.277   1_455  A
O201       Cu203   2.012       .  S
O201        C732   1.277   1_455  A
Cu202      Cu731   2.380       .  S
Cu203      Cu730   2.380   1_455  S
C204        O729   1.277       .  A
C204        C209   1.435       .  S
C205        O728   1.277       .  A
C205        C215   1.435       .  S
C206        O727   1.276       .  A
C206        C213   1.432       .  S
C207        O726   1.276       .  A
C207        C212   1.432       .  S
C208        C218   1.534       .  S
C208        C773   1.534       .  S
C208        C211   1.475       .  S
C209        C210   1.207       .  T
C211        C212   1.205       .  T
C213        C214   1.205       .  T
C215        C216   1.207       .  T
C217        C218   1.408       .  A
C217        C222   1.394       .  A
C217        H223   1.083       .  S
C218        C219   1.412       .  A
C219        C220   1.398       .  A
C219        H224   1.081       .  S
C220        C221   1.411       .  A
C220        H225   1.081       .  S
C221        C456   1.533       .  S
C221        C222   1.408       .  A
C222        H226   1.083       .  S
C227        C228   1.408       .  A
C227        C232   1.394       .  A
C227        H233   1.083       .  S
C229        C230   1.399       .  A
C229        H234   1.081       .  S
C230        H235   1.081       .  S
C231        C232   1.408       .  A
C232        H236   1.083       .  S
C237        C280   1.476       .  S
C237        C238   1.206       .  T
C239        C456   1.476       .  S
C239        C240   1.206       .  T
C241        C242   1.408       .  A
C241        C246   1.394       .  A
C242        C353   1.534       .  S
C242        C243   1.412       .  A
C243        C244   1.399       .  A
C243        H248   1.081       .  S
C244        C245   1.411       .  A
C244        H249   1.081       .  S
C245        C736   1.534   1_455  S
C245        C246   1.408       .  A
C246        H250   1.083       .  S
C251        C256   1.394       .  A
C251        H257   1.083       .  S
C252        C253   1.412       .  A
C253        C254   1.399       .  A
C253        H258   1.081       .  S
C254        C255   1.411       .  A
C254        H259   1.081       .  S
C255        C721   1.534   1_455  S
C256        H260   1.083       .  S
C261        C441   1.476   1_556  S
C261        C262   1.206       .  T
C263        C264   1.206       .  T
C264        C353   1.477       .  S
C265        C428   1.534       .  S
O266       Cu274   2.011       .  S
O267       Cu274   2.010       .  S
O268       Cu274   2.007       .  S
O269       Cu274   2.007       .  S
O270       Cu275   2.010       .  S
O270        C279   1.277   1_565  A
O271       Cu275   2.010       .  S
O271        C278   1.277       .  A
O272       Cu275   2.007       .  S
O272        C277   1.276   1_565  A
O273       Cu275   2.008       .  S
O273        C276   1.276       .  A
C276        C351   1.434       .  S
C277        C326   1.434       .  S
C278        C328   1.433       .  S
C279        C350   1.434       .  S
C280        C319   1.533   1_556  S
C281        C316   1.534       .  S
C281        C871   1.534   1_554  S
C281        C478   1.475   1_554  S
C281        C304   1.478       .  S
O282       Cu290   2.009       .  S
O282        C292   1.276       .  A
O283       Cu290   2.009       .  S
O283        C293   1.276       .  A
O284       Cu290   2.008       .  S
O284        C294   1.276       .  A
O285       Cu290   2.008       .  S
O285        C295   1.276       .  A
O286       Cu291   2.005       .  S
O286        C823   1.276   1_455  A
O287       Cu291   2.005       .  S
O287        C822   1.276   1_455  A
O288       Cu291   2.012       .  S
O288        C821   1.277   1_455  A
O289       Cu291   2.012       .  S
O289        C820   1.277   1_455  A
Cu290      Cu819   2.380       .  S
Cu291      Cu818   2.380   1_455  S
C292        O817   1.277       .  A
C292        C297   1.435       .  S
C293        O816   1.277       .  A
C293        C303   1.435       .  S
C294        O815   1.276       .  A
C294        C301   1.432       .  S
C295        O814   1.276       .  A
C295        C300   1.432       .  S
C296        C306   1.534       .  S
C296        C861   1.534   1_556  S
C296        C474   1.478       .  S
C296        C299   1.475   1_556  S
C297        C298   1.207       .  T
C298        C384   1.478       .  S
C299        C300   1.205       .  T
C301        C302   1.205       .  T
C302        C369   1.475       .  S
C303        C304   1.207       .  T
C305        C306   1.408       .  A
C305        C310   1.394       .  A
C305        H311   1.083       .  S
C306        C307   1.412   1_556  A
C307        C308   1.398       .  A
C307        H312   1.081       .  S
C308        C309   1.411   1_554  A
C308        H313   1.081       .  S
C309        C310   1.408       .  A
C310        H314   1.083       .  S
C315        C316   1.408       .  A
C315        C320   1.394       .  A
C315        H321   1.083       .  S
C316        C493   1.412   1_554  A
C317        C404   1.412       .  A
C317        C318   1.399       .  A
C317        H322   1.081       .  S
C318        C407   1.411       .  A
C318        H323   1.081       .  S
C319        C494   1.411   1_554  A
C319        C320   1.408       .  A
C320        H324   1.083       .  S
C325        C326   1.206       .  T
C327        C328   1.206       .  T
C329        C330   1.408       .  A
C329        C334   1.394       .  A
C329        H511   1.083       .  S
C330        C331   1.412   1_554  A
C331        C332   1.399       .  A
C331        H336   1.081       .  S
C332        C333   1.411   1_556  A
C332        H337   1.081       .  S
C333        C824   1.534   1_454  S
C333        C334   1.408       .  A
C334        H338   1.083       .  S
H335        C417   1.083       .  S
C339        C428   1.408       .  A
C339        C344   1.394       .  A
C339        H345   1.083       .  S
C340        C441   1.534   1_556  S
C340        C515   1.408       .  A
C340        C341   1.412   1_556  A
C341        C342   1.399       .  A
C341        H346   1.081       .  S
C342        C343   1.411   1_554  A
C342        H347   1.081       .  S
C343        C809   1.534   1_456  S
C343        C520   1.408       .  A
C344        C431   1.408       .  A
C344        H348   1.083       .  S
C349        C350   1.206       .  T
C351        C352   1.206       .  T
C353        C516   1.534       .  S
O354       Cu362   2.011       .  S
O355       Cu362   2.010       .  S
O356       Cu362   2.007       .  S
O357       Cu362   2.007       .  S
O358       Cu363   2.010       .  S
O358        C367   1.277   1_565  A
O359       Cu363   2.010       .  S
O359        C366   1.277       .  A
O360       Cu363   2.007       .  S
O360        C365   1.276   1_565  A
O361       Cu363   2.008       .  S
O361        C364   1.276       .  A
C364        C439   1.434       .  S
C365        C414   1.434       .  S
C366        C416   1.433       .  S
C367        C438   1.434       .  S
C368        C407   1.533       .  S
C369        C404   1.534       .  S
C369        C959   1.534       .  S
C369        C392   1.478       .  S
O370       Cu378   2.009       .  S
O370        C380   1.276       .  A
O371       Cu378   2.009       .  S
O371        C381   1.276       .  A
O372       Cu378   2.008       .  S
O372        C382   1.276       .  A
O373       Cu378   2.008       .  S
O373        C383   1.276       .  A
O374       Cu379   2.005       .  S
O374        C911   1.276   1_455  A
O375       Cu379   2.005       .  S
O375        C910   1.276   1_455  A
O376       Cu379   2.012       .  S
O376        C909   1.277   1_455  A
O377       Cu379   2.012       .  S
O377        C908   1.277   1_455  A
Cu378      Cu907   2.380       .  S
Cu379      Cu906   2.380   1_455  S
C380        O905   1.277       .  A
C380        C385   1.435       .  S
C381        O904   1.277       .  A
C381        C391   1.435       .  S
C382        O903   1.276       .  A
C382        C389   1.432       .  S
C383        O902   1.276       .  A
C383        C388   1.432       .  S
C384        C394   1.534       .  S
C384        C949   1.534       .  S
C384        C387   1.475       .  S
C385        C386   1.207       .  T
C386        C472   1.478       .  S
C387        C388   1.205       .  T
C389        C390   1.205       .  T
C390        C457   1.475       .  S
C391        C392   1.207       .  T
C393        C394   1.408       .  A
C393        C398   1.394       .  A
C393        H399   1.083       .  S
C394        C395   1.412       .  A
C395        C396   1.398       .  A
C395        H400   1.081       .  S
C396        C397   1.411       .  A
C396        H401   1.081       .  S
C397        C398   1.408       .  A
C398        H402   1.083       .  S
C403        C404   1.408       .  A
C403        C408   1.394       .  A
C403        H409   1.083       .  S
C405        C492   1.412       .  A
C405        C406   1.399       .  A
C405        H410   1.081       .  S
C406        C495   1.411       .  A
C406        H411   1.081       .  S
C407        C408   1.408       .  A
C408        H412   1.083       .  S
C413        C414   1.206       .  T
C415        C416   1.206       .  T
C417        C418   1.408       .  A
C417        C422   1.394       .  A
C418        C419   1.412       .  A
C419        C420   1.399       .  A
C419        H424   1.081       .  S
C420        C421   1.411       .  A
C420        H425   1.081       .  S
C421        C912   1.534   1_455  S
C421        C422   1.408       .  A
C422        H426   1.083       .  S
H423        C505   1.083       .  S
C427        C516   1.408       .  A
C427        C432   1.394       .  A
C427        H433   1.083       .  S
C428        C429   1.412       .  A
C429        C430   1.399       .  A
C429        H434   1.081       .  S
C430        C431   1.411       .  A
C430        H435   1.081       .  S
C431        C897   1.534   1_455  S
C432        C519   1.408       .  A
C432        H436   1.083       .  S
C437        C438   1.206       .  T
C439        C440   1.206       .  T
O442       Cu450   2.011       .  S
O443       Cu450   2.010       .  S
O444       Cu450   2.007       .  S
O445       Cu450   2.007       .  S
O446       Cu451   2.010       .  S
O446        C455   1.277   1_565  A
O447       Cu451   2.010       .  S
O447        C454   1.277       .  A
O448       Cu451   2.007       .  S
O448        C453   1.276   1_565  A
O449       Cu451   2.008       .  S
O449        C452   1.276       .  A
C452        C527   1.434       .  S
C453        C502   1.434       .  S
C454        C504   1.433       .  S
C455        C526   1.434       .  S
C456        C495   1.533       .  S
C457        C492   1.534       .  S
C457       C1047   1.534       .  S
C457        C480   1.478       .  S
O458       Cu466   2.009       .  S
O458        C468   1.276       .  A
O459       Cu466   2.009       .  S
O459        C469   1.276       .  A
O460       Cu466   2.008       .  S
O460        C470   1.276       .  A
O461       Cu466   2.008       .  S
O461        C471   1.276       .  A
O462       Cu467   2.005       .  S
O462        C999   1.276   1_455  A
O463       Cu467   2.005       .  S
O463        C998   1.276   1_455  A
O464       Cu467   2.012       .  S
O464        C997   1.277   1_455  A
O465       Cu467   2.012       .  S
O465        C996   1.277   1_455  A
Cu466      Cu995   2.380       .  S
Cu467      Cu994   2.380   1_455  S
C468        O993   1.277       .  A
C468        C473   1.435       .  S
C469        O992   1.277       .  A
C469        C479   1.435       .  S
C470        O991   1.276       .  A
C470        C477   1.432       .  S
C471        O990   1.276       .  A
C471        C476   1.432       .  S
C472        C482   1.534       .  S
C472       C1037   1.534       .  S
C472        C475   1.475       .  S
C473        C474   1.207       .  T
C475        C476   1.205       .  T
C477        C478   1.205       .  T
C479        C480   1.207       .  T
C481        C482   1.408       .  A
C481        C486   1.394       .  A
C481        H487   1.083       .  S
C482        C483   1.412       .  A
C483        C484   1.398       .  A
C483        H488   1.081       .  S
C484        C485   1.411       .  A
C484        H489   1.081       .  S
C485        C486   1.408       .  A
C486        H490   1.083       .  S
C491        C492   1.408       .  A
C491        C496   1.394       .  A
C491        H497   1.083       .  S
C493        C494   1.399       .  A
C493        H498   1.081       .  S
C494        H499   1.081       .  S
C495        C496   1.408       .  A
C496        H500   1.083       .  S
C501        C502   1.206       .  T
C503        C504   1.206       .  T
C505        C506   1.408       .  A
C505        C510   1.394       .  A
C506        C507   1.412       .  A
C507        C508   1.399       .  A
C507        H512   1.081       .  S
C508        C509   1.411       .  A
C508        H513   1.081       .  S
C509       C1000   1.534   1_455  S
C509        C510   1.408       .  A
C510        H514   1.083       .  S
C515        C520   1.394       .  A
C515        H521   1.083       .  S
C516        C517   1.412       .  A
C517        C518   1.399       .  A
C517        H522   1.081       .  S
C518        C519   1.411       .  A
C518        H523   1.081       .  S
C519        C985   1.534   1_455  S
C520        H524   1.083       .  S
C525        C526   1.206       .  T
C527        C528   1.206       .  T
C529        C946   1.534       .  S
C529        C692   1.534   1_565  S
C529        C877   1.476   1_565  S
C529        C968   1.477       .  S
O530       Cu538   2.011       .  S
O530        C804   1.277   1_545  A
O531       Cu538   2.010       .  S
O531        C805   1.277       .  A
O532       Cu538   2.007       .  S
O532        C806   1.276   1_545  A
O533       Cu538   2.007       .  S
O533        C807   1.276       .  A
O534       Cu539   2.010       .  S
O534        C543   1.277       .  A
O535       Cu539   2.010       .  S
O535        C542   1.277       .  A
O536       Cu539   2.007       .  S
O536        C541   1.276       .  A
O537       Cu539   2.008       .  S
O537        C540   1.276       .  A
Cu538      Cu803   2.380   1_545  S
Cu539      Cu802   2.380       .  S
C540        O794   1.277       .  A
C540        C615   1.434       .  S
C541        O795   1.277       .  A
C541        C590   1.434       .  S
C542        O796   1.276       .  A
C542        C592   1.433       .  S
C543        O797   1.276       .  A
C543        C614   1.434       .  S
C544        C837   1.533       .  S
C544        C583   1.533   1_566  S
C544       C1029   1.476   1_565  S
C544        C855   1.476   1_556  S
C545        C580   1.534       .  S
C545        C742   1.475   1_554  S
C545        C568   1.478       .  S
O546       Cu554   2.009       .  S
O546        C556   1.276       .  A
O547       Cu554   2.009       .  S
O547        C557   1.276       .  A
O548       Cu554   2.008       .  S
O548        C558   1.276       .  A
O549       Cu554   2.008       .  S
O549        C559   1.276       .  A
O550       Cu555   2.005       .  S
O551       Cu555   2.005       .  S
O552       Cu555   2.012       .  S
O553       Cu555   2.012       .  S
C556        C561   1.435       .  S
C557        C567   1.435       .  S
C558        C565   1.432       .  S
C559        C564   1.432       .  S
C560        C570   1.534       .  S
C560        C738   1.478       .  S
C560        C563   1.475   1_556  S
C561        C562   1.207       .  T
C562        C648   1.478       .  S
C563        C564   1.205       .  T
C565        C566   1.205       .  T
C566        C633   1.475       .  S
C567        C568   1.207       .  T
C569        C570   1.408       .  A
C569        C574   1.394       .  A
C569        H575   1.083       .  S
C570        C571   1.412   1_556  A
C571        C572   1.398       .  A
C571        H576   1.081       .  S
C572        C573   1.411   1_554  A
C572        H577   1.081       .  S
C573        C808   1.533       .  S
C573        C574   1.408       .  A
C574        H578   1.083       .  S
C579        C580   1.408       .  A
C579        C584   1.394       .  A
C579        H585   1.083       .  S
C580        C757   1.412   1_554  A
C581        C668   1.412       .  A
C581        C582   1.399       .  A
C581        H586   1.081       .  S
C582        C671   1.411       .  A
C582        H587   1.081       .  S
C583        C758   1.411   1_554  A
C583        C584   1.408       .  A
C584        H588   1.083       .  S
C589        C896   1.476       .  S
C589        C590   1.206       .  T
C591        C808   1.476   1_554  S
C591        C592   1.206       .  T
C593        C594   1.408       .  A
C593        C598   1.394       .  A
C593        H775   1.083       .  S
C594        C969   1.534       .  S
C594        C595   1.412   1_554  A
C595        C596   1.399       .  A
C595        H600   1.081       .  S
C596        C597   1.411   1_556  A
C596        H601   1.081       .  S
C597        C598   1.408       .  A
C598        H602   1.083       .  S
H599        C681   1.083       .  S
C603        C692   1.408       .  A
C603        C608   1.394       .  A
C603        H609   1.083       .  S
C604        C705   1.534   1_546  S
C604        C779   1.408       .  A
C604        C605   1.412   1_556  A
C605        C606   1.399       .  A
C605        H610   1.081       .  S
C606        C607   1.411   1_554  A
C606        H611   1.081       .  S
C607        C784   1.408       .  A
C608        C695   1.408       .  A
C608        H612   1.083       .  S
C613        C793   1.476       .  S
C613        C614   1.206       .  T
C615        C616   1.206       .  T
C616        C969   1.477       .  S
C617       C1034   1.534       .  S
C617        C780   1.534   1_565  S
C617        C965   1.476   1_565  S
C617       C1056   1.477       .  S
O618       Cu626   2.011       .  S
O618        C892   1.277   1_545  A
O619       Cu626   2.010       .  S
O619        C893   1.277       .  A
O620       Cu626   2.007       .  S
O620        C894   1.276   1_545  A
O621       Cu626   2.007       .  S
O621        C895   1.276       .  A
O622       Cu627   2.010       .  S
O622        C631   1.277       .  A
O623       Cu627   2.010       .  S
O623        C630   1.277       .  A
O624       Cu627   2.007       .  S
O624        C629   1.276       .  A
O625       Cu627   2.008       .  S
O625        C628   1.276       .  A
Cu626      Cu891   2.380   1_545  S
Cu627      Cu890   2.380       .  S
C628        O882   1.277       .  A
C628        C703   1.434       .  S
C629        O883   1.277       .  A
C629        C678   1.434       .  S
C630        O884   1.276       .  A
C630        C680   1.433       .  S
C631        O885   1.276       .  A
C631        C702   1.434       .  S
C632        C925   1.533       .  S
C632        C671   1.533   1_565  S
C632        C853   1.476   1_565  S
C632        C943   1.476       .  S
C633        C668   1.534       .  S
C633        C656   1.478       .  S
O634       Cu642   2.009       .  S
O634        C644   1.276       .  A
O635       Cu642   2.009       .  S
O635        C645   1.276       .  A
O636       Cu642   2.008       .  S
O636        C646   1.276       .  A
O637       Cu642   2.008       .  S
O637        C647   1.276       .  A
O638       Cu643   2.005       .  S
O639       Cu643   2.005       .  S
O640       Cu643   2.012       .  S
O641       Cu643   2.012       .  S
C644        C649   1.435       .  S
C645        C655   1.435       .  S
C646        C653   1.432       .  S
C647        C652   1.432       .  S
C648        C658   1.534       .  S
C648        C651   1.475       .  S
C649        C650   1.207       .  T
C650        C736   1.478       .  S
C651        C652   1.205       .  T
C653        C654   1.205       .  T
C654        C721   1.475       .  S
C655        C656   1.207       .  T
C657        C658   1.408       .  A
C657        C662   1.394       .  A
C657        H663   1.083       .  S
C658        C659   1.412       .  A
C659        C660   1.398       .  A
C659        H664   1.081       .  S
C660        C661   1.411       .  A
C660        H665   1.081       .  S
C661        C896   1.533       .  S
C661        C662   1.408       .  A
C662        H666   1.083       .  S
C667        C668   1.408       .  A
C667        C672   1.394       .  A
C667        H673   1.083       .  S
C669        C756   1.412       .  A
C669        C670   1.399       .  A
C669        H674   1.081       .  S
C670        C759   1.411       .  A
C670        H675   1.081       .  S
C671        C672   1.408       .  A
C672        H676   1.083       .  S
C677        C984   1.476       .  S
C677        C678   1.206       .  T
C679        C896   1.476       .  S
C679        C680   1.206       .  T
C681        C682   1.408       .  A
C681        C686   1.394       .  A
C682        C793   1.534       .  S
C682        C683   1.412       .  A
C683        C684   1.399       .  A
C683        H688   1.081       .  S
C684        C685   1.411       .  A
C684        H689   1.081       .  S
C685        C686   1.408       .  A
C686        H690   1.083       .  S
H687        C769   1.083       .  S
C691        C780   1.408       .  A
C691        C696   1.394       .  A
C691        H697   1.083       .  S
C692        C693   1.412       .  A
C693        C694   1.399       .  A
C693        H698   1.081       .  S
C694        C695   1.411       .  A
C694        H699   1.081       .  S
C696        C783   1.408       .  A
C696        H700   1.083       .  S
C701        C881   1.476       .  S
C701        C702   1.206       .  T
C703        C704   1.206       .  T
C704        C793   1.477       .  S
C705        C858   1.534       .  S
C705       C1053   1.476   1_564  S
C705        C880   1.477       .  S
O706       Cu714   2.011       .  S
O706        C980   1.277   1_545  A
O707       Cu714   2.010       .  S
O707        C981   1.277       .  A
O708       Cu714   2.007       .  S
O708        C982   1.276   1_545  A
O709       Cu714   2.007       .  S
O709        C983   1.276       .  A
O710       Cu715   2.010       .  S
O710        C719   1.277       .  A
O711       Cu715   2.010       .  S
O711        C718   1.277       .  A
O712       Cu715   2.007       .  S
O712        C717   1.276       .  A
O713       Cu715   2.008       .  S
O713        C716   1.276       .  A
Cu714      Cu979   2.380   1_545  S
Cu715      Cu978   2.380       .  S
C716        O970   1.277       .  A
C716        C791   1.434       .  S
C717        O971   1.277       .  A
C717        C766   1.434       .  S
C718        O972   1.276       .  A
C718        C768   1.433       .  S
C719        O973   1.276       .  A
C719        C790   1.434       .  S
C720       C1013   1.533       .  S
C720        C759   1.533   1_565  S
C720        C941   1.476   1_565  S
C720       C1031   1.476       .  S
C721        C756   1.534       .  S
C721        C744   1.478       .  S
O722       Cu730   2.009       .  S
O722        C732   1.276       .  A
O723       Cu730   2.009       .  S
O723        C733   1.276       .  A
O724       Cu730   2.008       .  S
O724        C734   1.276       .  A
O725       Cu730   2.008       .  S
O725        C735   1.276       .  A
O726       Cu731   2.005       .  S
O727       Cu731   2.005       .  S
O728       Cu731   2.012       .  S
O729       Cu731   2.012       .  S
C732        C737   1.435       .  S
C733        C743   1.435       .  S
C734        C741   1.432       .  S
C735        C740   1.432       .  S
C736        C746   1.534       .  S
C736        C739   1.475       .  S
C737        C738   1.207       .  T
C739        C740   1.205       .  T
C741        C742   1.205       .  T
C743        C744   1.207       .  T
C745        C746   1.408       .  A
C745        C750   1.394       .  A
C745        H751   1.083       .  S
C746        C747   1.412       .  A
C747        C748   1.398       .  A
C747        H752   1.081       .  S
C748        C749   1.411       .  A
C748        H753   1.081       .  S
C749        C984   1.533       .  S
C749        C750   1.408       .  A
C750        H754   1.083       .  S
C755        C756   1.408       .  A
C755        C760   1.394       .  A
C755        H761   1.083       .  S
C757        C758   1.399       .  A
C757        H762   1.081       .  S
C758        H763   1.081       .  S
C759        C760   1.408       .  A
C760        H764   1.083       .  S
C765        C808   1.476       .  S
C765        C766   1.206       .  T
C767        C984   1.476       .  S
C767        C768   1.206       .  T
C769        C770   1.408       .  A
C769        C774   1.394       .  A
C770        C881   1.534       .  S
C770        C771   1.412       .  A
C771        C772   1.399       .  A
C771        H776   1.081       .  S
C772        C773   1.411       .  A
C772        H777   1.081       .  S
C773        C774   1.408       .  A
C774        H778   1.083       .  S
C779        C784   1.394       .  A
C779        H785   1.083       .  S
C780        C781   1.412       .  A
C781        C782   1.399       .  A
C781        H786   1.081       .  S
C782        C783   1.411       .  A
C782        H787   1.081       .  S
C784        H788   1.083       .  S
C789        C969   1.476   1_556  S
C789        C790   1.206       .  T
C791        C792   1.206       .  T
C792        C881   1.477       .  S
C793        C956   1.534       .  S
O794       Cu802   2.011       .  S
O795       Cu802   2.010       .  S
O796       Cu802   2.007       .  S
O797       Cu802   2.007       .  S
O798       Cu803   2.010       .  S
O798        C807   1.277   1_565  A
O799       Cu803   2.010       .  S
O799        C806   1.277       .  A
O800       Cu803   2.007       .  S
O800        C805   1.276   1_565  A
O801       Cu803   2.008       .  S
O801        C804   1.276       .  A
C804        C879   1.434       .  S
C805        C854   1.434       .  S
C806        C856   1.433       .  S
C807        C878   1.434       .  S
C808        C847   1.533   1_556  S
C809        C844   1.534       .  S
C809       C1006   1.475   1_554  S
C809        C832   1.478       .  S
O810       Cu818   2.009       .  S
O810        C820   1.276       .  A
O811       Cu818   2.009       .  S
O811        C821   1.276       .  A
O812       Cu818   2.008       .  S
O812        C822   1.276       .  A
O813       Cu818   2.008       .  S
O813        C823   1.276       .  A
O814       Cu819   2.005       .  S
O815       Cu819   2.005       .  S
O816       Cu819   2.012       .  S
O817       Cu819   2.012       .  S
C820        C825   1.435       .  S
C821        C831   1.435       .  S
C822        C829   1.432       .  S
C823        C828   1.432       .  S
C824        C834   1.534       .  S
C824       C1002   1.478       .  S
C824        C827   1.475   1_556  S
C825        C826   1.207       .  T
C826        C912   1.478       .  S
C827        C828   1.205       .  T
C829        C830   1.205       .  T
C830        C897   1.475       .  S
C831        C832   1.207       .  T
C833        C834   1.408       .  A
C833        C838   1.394       .  A
C833        H839   1.083       .  S
C834        C835   1.412   1_556  A
C835        C836   1.398       .  A
C835        H840   1.081       .  S
C836        C837   1.411   1_554  A
C836        H841   1.081       .  S
C837        C838   1.408       .  A
C838        H842   1.083       .  S
C843        C844   1.408       .  A
C843        C848   1.394       .  A
C843        H849   1.083       .  S
C844       C1021   1.412   1_554  A
C845        C932   1.412       .  A
C845        C846   1.399       .  A
C845        H850   1.081       .  S
C846        C935   1.411       .  A
C846        H851   1.081       .  S
C847       C1022   1.411   1_554  A
C847        C848   1.408       .  A
C848        H852   1.083       .  S
C853        C854   1.206       .  T
C855        C856   1.206       .  T
C857        C858   1.408       .  A
C857        C862   1.394       .  A
C857       H1039   1.083       .  S
C858        C859   1.412   1_554  A
C859        C860   1.399       .  A
C859        H864   1.081       .  S
C860        C861   1.411   1_556  A
C860        H865   1.081       .  S
C861        C862   1.408       .  A
C862        H866   1.083       .  S
H863        C945   1.083       .  S
C867        C956   1.408       .  A
C867        C872   1.394       .  A
C867        H873   1.083       .  S
C868        C969   1.534   1_556  S
C868       C1043   1.408       .  A
C868        C869   1.412   1_556  A
C869        C870   1.399       .  A
C869        H874   1.081       .  S
C870        C871   1.411   1_554  A
C870        H875   1.081       .  S
C871       C1048   1.408       .  A
C872        C959   1.408       .  A
C872        H876   1.083       .  S
C877        C878   1.206       .  T
C879        C880   1.206       .  T
C881       C1044   1.534       .  S
O882       Cu890   2.011       .  S
O883       Cu890   2.010       .  S
O884       Cu890   2.007       .  S
O885       Cu890   2.007       .  S
O886       Cu891   2.010       .  S
O886        C895   1.277   1_565  A
O887       Cu891   2.010       .  S
O887        C894   1.277       .  A
O888       Cu891   2.007       .  S
O888        C893   1.276   1_565  A
O889       Cu891   2.008       .  S
O889        C892   1.276       .  A
C892        C967   1.434       .  S
C893        C942   1.434       .  S
C894        C944   1.433       .  S
C895        C966   1.434       .  S
C896        C935   1.533       .  S
C897        C932   1.534       .  S
C897        C920   1.478       .  S
O898       Cu906   2.009       .  S
O898        C908   1.276       .  A
O899       Cu906   2.009       .  S
O899        C909   1.276       .  A
O900       Cu906   2.008       .  S
O900        C910   1.276       .  A
O901       Cu906   2.008       .  S
O901        C911   1.276       .  A
O902       Cu907   2.005       .  S
O903       Cu907   2.005       .  S
O904       Cu907   2.012       .  S
O905       Cu907   2.012       .  S
C908        C913   1.435       .  S
C909        C919   1.435       .  S
C910        C917   1.432       .  S
C911        C916   1.432       .  S
C912        C922   1.534       .  S
C912        C915   1.475       .  S
C913        C914   1.207       .  T
C914       C1000   1.478       .  S
C915        C916   1.205       .  T
C917        C918   1.205       .  T
C918        C985   1.475       .  S
C919        C920   1.207       .  T
C921        C922   1.408       .  A
C921        C926   1.394       .  A
C921        H927   1.083       .  S
C922        C923   1.412       .  A
C923        C924   1.398       .  A
C923        H928   1.081       .  S
C924        C925   1.411       .  A
C924        H929   1.081       .  S
C925        C926   1.408       .  A
C926        H930   1.083       .  S
C931        C932   1.408       .  A
C931        C936   1.394       .  A
C931        H937   1.083       .  S
C933       C1020   1.412       .  A
C933        C934   1.399       .  A
C933        H938   1.081       .  S
C934       C1023   1.411       .  A
C934        H939   1.081       .  S
C935        C936   1.408       .  A
C936        H940   1.083       .  S
C941        C942   1.206       .  T
C943        C944   1.206       .  T
C945        C946   1.408       .  A
C945        C950   1.394       .  A
C946        C947   1.412       .  A
C947        C948   1.399       .  A
C947        H952   1.081       .  S
C948        C949   1.411       .  A
C948        H953   1.081       .  S
C949        C950   1.408       .  A
C950        H954   1.083       .  S
H951       C1033   1.083       .  S
C955       C1044   1.408       .  A
C955        C960   1.394       .  A
C955        H961   1.083       .  S
C956        C957   1.412       .  A
C957        C958   1.399       .  A
C957        H962   1.081       .  S
C958        C959   1.411       .  A
C958        H963   1.081       .  S
C960       C1047   1.408       .  A
C960        H964   1.083       .  S
C965        C966   1.206       .  T
C967        C968   1.206       .  T
O970       Cu978   2.011       .  S
O971       Cu978   2.010       .  S
O972       Cu978   2.007       .  S
O973       Cu978   2.007       .  S
O974       Cu979   2.010       .  S
O974        C983   1.277   1_565  A
O975       Cu979   2.010       .  S
O975        C982   1.277       .  A
O976       Cu979   2.007       .  S
O976        C981   1.276   1_565  A
O977       Cu979   2.008       .  S
O977        C980   1.276       .  A
C980       C1055   1.434       .  S
C981       C1030   1.434       .  S
C982       C1032   1.433       .  S
C983       C1054   1.434       .  S
C984       C1023   1.533       .  S
C985       C1020   1.534       .  S
C985       C1008   1.478       .  S
O986       Cu994   2.009       .  S
O986        C996   1.276       .  A
O987       Cu994   2.009       .  S
O987        C997   1.276       .  A
O988       Cu994   2.008       .  S
O988        C998   1.276       .  A
O989       Cu994   2.008       .  S
O989        C999   1.276       .  A
O990       Cu995   2.005       .  S
O991       Cu995   2.005       .  S
O992       Cu995   2.012       .  S
O993       Cu995   2.012       .  S
C996       C1001   1.435       .  S
C997       C1007   1.435       .  S
C998       C1005   1.432       .  S
C999       C1004   1.432       .  S
C1000      C1010   1.534       .  S
C1000      C1003   1.475       .  S
C1001      C1002   1.207       .  T
C1003      C1004   1.205       .  T
C1005      C1006   1.205       .  T
C1007      C1008   1.207       .  T
C1009      C1010   1.408       .  A
C1009      C1014   1.394       .  A
C1009      H1015   1.083       .  S
C1010      C1011   1.412       .  A
C1011      C1012   1.398       .  A
C1011      H1016   1.081       .  S
C1012      C1013   1.411       .  A
C1012      H1017   1.081       .  S
C1013      C1014   1.408       .  A
C1014      H1018   1.083       .  S
C1019      C1020   1.408       .  A
C1019      C1024   1.394       .  A
C1019      H1025   1.083       .  S
C1021      C1022   1.399       .  A
C1021      H1026   1.081       .  S
C1022      H1027   1.081       .  S
C1023      C1024   1.408       .  A
C1024      H1028   1.083       .  S
C1029      C1030   1.206       .  T
C1031      C1032   1.206       .  T
C1033      C1034   1.408       .  A
C1033      C1038   1.394       .  A
C1034      C1035   1.412       .  A
C1035      C1036   1.399       .  A
C1035      H1040   1.081       .  S
C1036      C1037   1.411       .  A
C1036      H1041   1.081       .  S
C1037      C1038   1.408       .  A
C1038      H1042   1.083       .  S
C1043      C1048   1.394       .  A
C1043      H1049   1.083       .  S
C1044      C1045   1.412       .  A
C1045      C1046   1.399       .  A
C1045      H1050   1.081       .  S
C1046      C1047   1.411       .  A
C1046      H1051   1.081       .  S
C1048      H1052   1.083       .  S
C1053      C1054   1.206       .  T
C1055      C1056   1.206       .  T
