geometry optimzed in LAMMPS
_audit_creation_date              2020-11-30 
_audit_creation_method            'lammps2cif' 
_symmetry_space_group_name_H-M    'P1' 
_symmetry_Int_Tables_number       1 
_symmetry_cell_setting            triclinic 
loop_ 
_symmetry_equiv_pos_as_xyz 
  x,y,z 
_cell_length_a                    53.58667396 
_cell_length_b                    55.50827600365767 
_cell_length_c                    34.66047576082988 
_cell_angle_alpha                 86.79464444824706 
_cell_angle_beta                  89.75678866939488 
_cell_angle_gamma                 88.24776200693448 
loop_ 
_atom_site_label 
_atom_site_type_symbol 
_atom_site_fract_x 
_atom_site_fract_y 
_atom_site_fract_z 
_atom_site_charge 
O1          O  0.77993834  0.09743563  0.07502745    -0.81100
O2          O  0.77081393  0.08589323  0.90180935    -0.65800
O3          O  0.77972511  0.07110904  0.01010334    -1.12400
C4          C  0.86257431  0.09478721  0.98166768     1.05800
O5          O  0.80312472  0.06182877  0.89532488    -0.79000
O6          O  0.83431546  0.04346424  0.94849657    -0.66600
Ni7        Ni  0.75602625  0.08032201  0.04721219     1.34900
C8          C  0.83285813  0.03548514  0.98336759     0.84500
O9          O  0.74048825  0.06727212  0.95775659    -0.79600
O10         O  0.73066113  0.06369260  0.02120937    -0.89800
C11         C  0.78551159  0.07454959  0.87984969     0.84100
O12         O  0.74445634  0.11019758  0.02308911    -0.68000
O13         O  0.85822384  0.08727725  0.94825242    -0.87300
C14         C  0.74634484  0.12075572  0.98987371     0.84900
C15         C  0.72587217  0.06114492  0.98557802     1.06500
H16         H  0.80780741  0.10663337  0.95299128     0.38300
O17         O  0.80759431  0.08934883  0.95813821    -1.10000
O18         O  0.82586541  0.04911950  0.01006488    -0.66600
Ni19       Ni  0.81319350  0.08242469  0.01206577     1.26300
O20         O  0.75980356  0.11188737  0.96308940    -0.66900
O21         O  0.84687442  0.09404040  0.00976550    -0.79200
C22         C  0.79976875  0.08772220  0.08941689     0.84300
O23         O  0.81566618  0.07753761  0.06766470    -0.66300
Ni24       Ni  0.82992890  0.07477273  0.92290928     1.27400
Ni25       Ni  0.77373968  0.07913258  0.95680442     1.26100
H26         H  0.78050234  0.05371272  0.01257659     0.38800
O27         O  0.78742093  0.10747008  0.57441635    -0.81100
O28         O  0.78204645  0.09778187  0.40222249    -0.65800
O29         O  0.78804401  0.08131825  0.51032538    -1.12400
C30         C  0.87235383  0.10490361  0.48918959     1.05800
O31         O  0.81551178  0.07463683  0.39456918    -0.79000
O32         O  0.84475834  0.05505009  0.45010820    -0.66600
Ni33       Ni  0.76332235  0.09137053  0.54584355     1.34900
C34         C  0.84301879  0.04694493  0.48482157     0.84500
O35         O  0.74909915  0.07963858  0.45578846    -0.79600
O36         O  0.73807027  0.07562573  0.51868084    -0.89800
C37         C  0.79775136  0.08776981  0.38016683     0.84100
O38         O  0.75312988  0.12160420  0.52110577    -0.68000
O39         O  0.86869257  0.09791041  0.45517997    -0.87300
C40         C  0.75826450  0.13251100  0.48906503     0.84900
C41         C  0.73347850  0.07402614  0.48282723     1.06500
H42         H  0.81804701  0.11722974  0.45637754     0.38300
O43         O  0.81763391  0.09988501  0.46072734    -1.10000
O44         O  0.83495051  0.05990121  0.51165549    -0.66600
Ni45       Ni  0.82170115  0.09260798  0.51487618     1.26300
O46         O  0.77189832  0.12297013  0.46348848    -0.66900
O47         O  0.85558677  0.10425928  0.51585317    -0.79200
C48         C  0.80510955  0.09530680  0.59075075     0.84300
O49         O  0.82243421  0.08628485  0.57030737    -0.66300
Ni50       Ni  0.84121642  0.08658295  0.42611684     1.27400
Ni51       Ni  0.78352583  0.09002327  0.45695494     1.26100
H52         H  0.78858052  0.06431495  0.51266569     0.38800
O53         O  0.56308458  0.32090641  0.89767706    -0.81100
O54         O  0.58308147  0.32943404  0.07177487    -0.65800
O55         O  0.59210381  0.32196813  0.96363515    -1.12400
C56         C  0.56140532  0.24385465  0.99919374     1.05800
O57         O  0.60521044  0.29557436  0.08107429    -0.79000
O58         O  0.61480533  0.25925132  0.03079052    -0.66600
Ni59       Ni  0.57923553  0.34497009  0.92559087     1.34900
C60         C  0.62361956  0.26181993  0.99664645     0.84500
O61         O  0.59832155  0.35963272  0.01346232    -0.79600
O62         O  0.59499385  0.37062319  0.95035116    -0.89800
C63         C  0.59471689  0.31423007  0.09458431     0.84100
O64         O  0.54785529  0.35229276  0.94939941    -0.68000
O65         O  0.56558727  0.24901296  0.03395149    -0.87300
C66         C  0.53951857  0.34949529  0.98362788     0.84900
C67         C  0.60064569  0.37498444  0.98494658     1.06500
H68         H  0.55633116  0.29649298  0.02135285     0.38300
O69         O  0.57422460  0.29541346  0.01787912    -1.10000
O70         O  0.61338640  0.27601747  0.97074209    -0.66600
Ni71       Ni  0.57978586  0.28980080  0.96520588     1.26300
O72         O  0.55248285  0.34009126  0.01168875    -0.66900
O73         O  0.56708007  0.25766592  0.96982289    -0.79200
C74         C  0.57399441  0.30189991  0.88650929     0.84300
O75         O  0.58431609  0.28684250  0.91084438    -0.66300
Ni76       Ni  0.58568910  0.27243447  0.05629237     1.27400
Ni77       Ni  0.58655306  0.32732547  0.01690478     1.26100
H78         H  0.60996018  0.32105320  0.95965295     0.38800
O79         O  0.57056522  0.32076727  0.39702685    -0.81100
O80         O  0.57434152  0.31962094  0.57372740    -0.65800
O81         O  0.59393758  0.31677454  0.46764845    -1.12400
C82         C  0.56049283  0.23793633  0.48736745     1.05800
O83         O  0.59775295  0.28679399  0.58166758    -0.79000
O84         O  0.61320127  0.25472986  0.53121058    -0.66600
Ni85       Ni  0.58540959  0.34233594  0.43065799     1.34900
C86         C  0.62299050  0.25691401  0.49796892     0.84500
O87         O  0.59539947  0.35252492  0.52363623    -0.79600
O88         O  0.60009554  0.36570324  0.46168772    -0.89800
C89         C  0.58477688  0.30345322  0.59620368     0.84100
O90         O  0.55252603  0.35038474  0.44865088    -0.68000
O91         O  0.56567685  0.24017904  0.52297994    -0.87300
C92         C  0.54035564  0.34457012  0.47908422     0.84900
C93         C  0.60153189  0.36871780  0.49780261     1.06500
H94         H  0.55346271  0.28888822  0.51556034     0.38300
O95         O  0.57149077  0.28820795  0.51435382    -1.10000
O96         O  0.61286967  0.26951632  0.47010998    -0.66600
Ni97       Ni  0.58030953  0.28524269  0.46187280     1.26300
O98         O  0.55015028  0.33256427  0.50786905    -0.66900
O99         O  0.56549593  0.25378128  0.46007789    -0.79200
C100        C  0.58207793  0.30250056  0.38464812     0.84300
O101        O  0.58870441  0.28496486  0.40784791    -0.66300
Ni102      Ni  0.58162932  0.26394023  0.55168627     1.27400
Ni103      Ni  0.58346929  0.31999503  0.51995609     1.26100
H104        H  0.61194016  0.31513188  0.46766158     0.38800
O105        O  0.46453245  0.00537996  0.03119698    -0.81100
O106        O  0.47823634  0.99933055  0.85939077    -0.65800
O107        O  0.49161937  0.99363139  0.96769826    -1.12400
C108        C  0.50784508  0.07699421  0.94790326     1.05800
O109        O  0.51487438  0.01559185  0.85393605    -0.79000
O110        O  0.54306612  0.03228281  0.91017658    -0.66600
Ni111      Ni  0.47025295  0.97725728  0.00289775     1.34900
C112        C  0.54789185  0.02576994  0.94506107     0.84500
O113        O  0.47709707  0.96089652  0.91281647    -0.83600
O114        O  0.47523315  0.94853778  0.97589150    -0.89800
C115        C  0.49544287  0.00824002  0.83812674     0.84100
O116        O  0.43922058  0.98388489  0.97736331    -0.68000
O117        O  0.51240629  0.07184516  0.91305272    -0.87300
C118        C  0.43299247  0.99492930  0.94571754     0.84900
C119        C  0.47446621  0.94445410  0.94007005     1.06500
H120        H  0.47414925  0.03802006  0.91408143     0.38300
O121        O  0.48964426  0.02894289  0.91855819    -1.10000
O122        O  0.53116400  0.02274481  0.97067451    -0.66600
Ni123      Ni  0.49558908  0.02758978  0.97260847     1.26300
O124        O  0.44870852  0.00232332  0.92060513    -0.66900
O125        O  0.50005890  0.06185579  0.97418835    -0.79200
C126        C  0.48288794  0.01389305  0.04797557     0.84300
O127        O  0.49963842  0.02411300  0.02760173    -0.66300
Ni128      Ni  0.51316417  0.04331019  0.88444874     1.27400
Ni129      Ni  0.48376762  0.99523545  0.91422985     1.26100
H130        H  0.50777200  0.98551605  0.97048485     0.38800
O131        O  0.49233332  0.98685842  0.54076650    -0.81100
O132        O  0.49076114  0.98625823  0.36093250    -0.65800
O133        O  0.51285036  0.98416085  0.46565115    -1.12400
C134        C  0.50799130  0.06936348  0.44784743     1.05800
O135        O  0.51820905  0.01380258  0.34359978    -0.79000
O136        O  0.54785122  0.03077612  0.39685042    -0.66600
Ni137      Ni  0.49810898  0.96269702  0.50374339     1.34900
C138        C  0.55675754  0.02770963  0.43060975     0.84500
O139        O  0.50489914  0.94984090  0.40963319    -0.79600
O140        O  0.50247743  0.93583007  0.47153014    -0.89800
C141        C  0.50249615  0.99833683  0.33510574     0.84100
O142        O  0.46426083  0.96744250  0.48765008    -0.68000
O143        O  0.51271116  0.06549058  0.41260151    -0.87300
C144        C  0.45406850  0.97379714  0.45555652     0.84900
C145        C  0.50404436  0.93265681  0.43547723     1.06500
H146        H  0.48062273  0.02314365  0.41704759     0.38300
O147        O  0.49805655  0.01828469  0.41807338    -1.10000
O148        O  0.54336358  0.02310409  0.46036573    -0.66600
Ni149      Ni  0.50836988  0.01831280  0.47068838     1.26300
O150        O  0.46642024  0.98083560  0.42581415    -0.66900
O151        O  0.50350239  0.05261717  0.47346533    -0.79200
C152        C  0.50536827  0.00446240  0.54945651     0.84300
O153        O  0.51748443  0.01670470  0.52418488    -0.66300
Ni154      Ni  0.51467396  0.03843044  0.38028355     1.27400
Ni155      Ni  0.50134249  0.98417005  0.41339955     1.26100
H156        H  0.53048083  0.98006431  0.46543861     0.38800
O157        O  0.43302604  0.68889570  0.89236822    -0.81100
O158        O  0.41732595  0.68924957  0.06831935    -0.65800
O159        O  0.40527760  0.69114045  0.95993069    -1.12400
C160        C  0.43833553  0.77039041  0.96280377     1.05800
O161        O  0.40123774  0.72609400  0.07202130    -0.79000
O162        O  0.38808713  0.75680092  0.01251592    -0.66600
Ni163      Ni  0.42021280  0.66616934  0.93059698     1.34900
C164        C  0.37702155  0.75450319  0.98076617     0.84500
O165        O  0.39651193  0.65770495  0.02155310    -0.79600
O166        O  0.40799962  0.64130232  0.96609152    -0.89800
C167        C  0.41015824  0.70666832  0.08816016     0.84100
O168        O  0.45270048  0.66381569  0.95341121    -0.68000
O169        O  0.43627306  0.76796960  0.99959342    -0.87300
C170        C  0.45935152  0.66569635  0.98807479     0.84900
C171        C  0.39740767  0.64003671  0.99919447     1.06500
H172        H  0.44424309  0.71770014  0.00388411     0.38300
O173        O  0.42631033  0.71995557  0.00284059    -1.10000
O174        O  0.38489392  0.73947174  0.95610198    -0.66600
Ni175      Ni  0.41776126  0.72298377  0.94936130     1.26300
O176        O  0.44465711  0.67360024  0.01360715    -0.66900
O177        O  0.43178013  0.75438299  0.94005509    -0.79200
C178        C  0.42011201  0.70593720  0.87575635     0.84300
O179        O  0.41012467  0.72241151  0.89534602    -0.66300
Ni180      Ni  0.41903635  0.74593651  0.03469235     1.27400
Ni181      Ni  0.41163287  0.68896132  0.01404742     1.26100
H182        H  0.38744561  0.69149648  0.95578412     0.38800
O183        O  0.44516981  0.68813190  0.39349973    -0.81100
O184        O  0.42112554  0.68380344  0.56744068    -0.65800
O185        O  0.41465182  0.68737040  0.45770765    -1.12400
C186        C  0.44418149  0.76741692  0.47123222     1.05800
O187        O  0.40116311  0.71894855  0.56819450    -0.79000
O188        O  0.39104429  0.75159763  0.50930472    -0.66600
Ni189      Ni  0.43054536  0.66371036  0.42730204     1.34900
C190        C  0.38176518  0.74690377  0.47704066     0.84500
O191        O  0.40535577  0.65175364  0.51626421    -0.79600
O192        O  0.41622728  0.63766466  0.45852411    -0.89800
C193        C  0.41136291  0.70074251  0.58618774     0.84100
O194        O  0.46164814  0.66003419  0.45418240    -0.68000
O195        O  0.43985924  0.76379567  0.50732031    -0.87300
C196        C  0.46749223  0.66283006  0.48902594     0.84900
C197        C  0.40641406  0.63496107  0.49215027     1.06500
H198        H  0.44954516  0.71478292  0.50854638     0.38300
O199        O  0.43167184  0.71601728  0.50495200    -1.10000
O200        O  0.39243197  0.73278113  0.45392864    -0.66600
Ni201      Ni  0.42628795  0.71982229  0.45089017     1.26300
O202        O  0.45217343  0.67108160  0.51342008    -0.66900
O203        O  0.43869231  0.75234785  0.44607923    -0.79200
C204        C  0.43205566  0.70491514  0.37650704     0.84300
O205        O  0.42123058  0.72069420  0.39632305    -0.66300
Ni206      Ni  0.42052845  0.74080594  0.53684845     1.27400
Ni207      Ni  0.41839738  0.68414534  0.51228566     1.26100
H208        H  0.39701067  0.68743352  0.45199174     0.38800
O209        O  0.21303778  0.90558503  0.06183241    -0.81100
O210        O  0.21062154  0.92174235  0.88921130    -0.65800
O211        O  0.20957144  0.93449027  0.99571822    -1.12400
C212        C  0.12569929  0.91125065  0.98863231     1.05800
O213        O  0.17557898  0.94304513  0.88009142    -0.79000
O214        O  0.15155067  0.96253692  0.93914450    -0.66600
Ni215      Ni  0.23560390  0.92319040  0.02919382     1.34900
C216        C  0.15450440  0.96986003  0.97278565     0.84500
O217        O  0.24467250  0.93954080  0.93639547    -0.79600
O218        O  0.25886976  0.94063347  0.99764199    -0.89800
C219        C  0.19416902  0.93150005  0.86666389     0.84100
O220        O  0.24587110  0.89406831  0.00614783    -0.68000
O221        O  0.12702407  0.91973301  0.95374069    -0.87300
C222        C  0.24056558  0.88459631  0.97490506     0.84900
C223        C  0.26111428  0.94456341  0.96115205     1.06500
H224        H  0.17786069  0.89963669  0.94938819     0.38300
O225        O  0.17808961  0.91689890  0.95175688    -1.10000
O226        O  0.16316893  0.95607256  0.00056659    -0.66600
Ni227      Ni  0.17673239  0.92301580  0.00564157     1.26300
O228        O  0.22528166  0.89467073  0.95029167    -0.66900
O229        O  0.14373474  0.91096085  0.01264622    -0.79200
C230        C  0.19646176  0.91744288  0.07947001     0.84300
O231        O  0.17863497  0.92776551  0.06019130    -0.66300
Ni232      Ni  0.15258676  0.93121296  0.91889539     1.27400
Ni233      Ni  0.21142780  0.92763534  0.94289131     1.26100
H234        H  0.20906934  0.95182859  0.99665175     0.38800
O235        O  0.22317285  0.89943732  0.56708339    -0.81100
O236        O  0.22688362  0.91679413  0.39071261    -0.65800
O237        O  0.21996276  0.92700575  0.49780666    -1.12400
C238        C  0.13881224  0.90014392  0.48727331     1.05800
O239        O  0.18737446  0.92680854  0.37506831    -0.79000
O240        O  0.17018377  0.95206974  0.43463514    -0.66600
Ni241      Ni  0.24558222  0.91708801  0.53361393     1.34900
C242        C  0.16863177  0.95876458  0.46900004     0.84500
O243        O  0.25588241  0.93761637  0.44159122    -0.79600
O244        O  0.26972023  0.93442428  0.50301889    -0.89800
C245        C  0.20991706  0.92210605  0.36602257     0.84100
O246        O  0.25599120  0.88768888  0.51185259    -0.68000
O247        O  0.13966781  0.91315491  0.45587766    -0.87300
C248        C  0.25467098  0.87978647  0.47832259     0.84900
C249        C  0.27214868  0.94124304  0.46743902     1.06500
H250        H  0.19413685  0.88933097  0.44672644     0.38300
O251        O  0.19242015  0.90645494  0.45019780    -1.10000
O252        O  0.17155814  0.94358092  0.49773300    -0.66600
Ni253      Ni  0.18859472  0.91194866  0.50398864     1.26300
O254        O  0.24195086  0.89053937  0.45119013    -0.66900
O255        O  0.15776801  0.89581584  0.50853482    -0.79200
C256        C  0.20373895  0.90957347  0.58041018     0.84300
O257        O  0.18672490  0.91749765  0.55758775    -0.66300
Ni258      Ni  0.16581427  0.92006052  0.41827806     1.27400
Ni259      Ni  0.22435848  0.92160003  0.44465857     1.26100
H260        H  0.21771303  0.94419192  0.49950975     0.38800
O261        O  0.94136255  0.81166529  0.14778944    -0.81100
O262        O  0.92129818  0.81749896  0.97689001    -0.65800
O263        O  0.91061214  0.81111570  0.08579610    -1.12400
C264        C  0.94456456  0.73109008  0.07310854     1.05800
O265        O  0.90453475  0.78218145  0.97085919    -0.79000
O266        O  0.89136716  0.75185055  0.02958431    -0.66600
Ni267      Ni  0.92188193  0.83516877  0.11807068     1.34900
C268        C  0.88338016  0.75257018  0.06396634     0.84500
O269        O  0.90114989  0.84825634  0.02834802    -0.79600
O270        O  0.90285372  0.85989925  0.08956933    -0.89800
C271        C  0.91358941  0.80133667  0.95572458     0.84100
O272        O  0.95162198  0.84448421  0.09177191    -0.68000
O273        O  0.93885888  0.73445900  0.03739942    -0.87300
C274        C  0.96017623  0.84049330  0.05860066     0.84900
C275        C  0.89712430  0.86385336  0.05402197     1.06500
H276        H  0.94935537  0.78496343  0.03497404     0.38300
O277        O  0.93154520  0.78365394  0.03853747    -1.10000
O278        O  0.89418287  0.76391308  0.08988014    -0.66600
Ni279      Ni  0.92607005  0.77927777  0.09293146     1.26300
O280        O  0.94867726  0.82883231  0.03422230    -0.66900
O281        O  0.94174475  0.74737916  0.09767891    -0.79200
C282        C  0.93024748  0.79504033  0.16659610     0.84300
O283        O  0.92109781  0.77821509  0.14820038    -0.66300
Ni284      Ni  0.92212597  0.75945198  0.00543706     1.27400
Ni285      Ni  0.91613711  0.81562135  0.03176391     1.26100
H286        H  0.89284764  0.80989771  0.08996598     0.38800
O287        O  0.93971349  0.81931748  0.65017683    -0.81100
O288        O  0.92419076  0.82785686  0.47391985    -0.65800
O289        O  0.91205379  0.82274405  0.58277568    -1.12400
C290        C  0.93843523  0.74044641  0.56804775     1.05800
O291        O  0.90230017  0.79539669  0.46912947    -0.79000
O292        O  0.88785163  0.76313785  0.52547233    -0.66600
Ni293      Ni  0.92600952  0.84480901  0.61625465     1.34900
C294        C  0.87786072  0.76735603  0.55776223     0.84500
O295        O  0.90728546  0.85990605  0.52472745    -0.79600
O296        O  0.91240487  0.87173363  0.58519615    -0.89800
C297        C  0.91396804  0.81284039  0.45313440     0.84100
O298        O  0.95817689  0.84809706  0.59244276    -0.68000
O299        O  0.93530207  0.74507732  0.53182020    -0.87300
C300        C  0.96609422  0.84483457  0.55850665     0.84900
C301        C  0.90595346  0.87587920  0.54997652     1.06500
H302        H  0.94824764  0.79298277  0.53364927     0.38300
O303        O  0.93025898  0.79351460  0.53582123    -1.10000
O304        O  0.88855001  0.77934115  0.58302033    -0.66600
Ni305      Ni  0.92267550  0.78936240  0.58938536     1.26300
O306        O  0.95265166  0.83674579  0.53235187    -0.66900
O307        O  0.93392703  0.75579624  0.59368956    -0.79200
C308        C  0.92649335  0.80267504  0.66523426     0.84300
O309        O  0.91599402  0.78808559  0.64394116    -0.66300
Ni310      Ni  0.91898398  0.77084653  0.50148699     1.27400
Ni311      Ni  0.91870143  0.82660049  0.52875796     1.26100
H312        H  0.89415725  0.82391371  0.58620748     0.38800
O313        O  0.66655392  0.59820932  0.14046102    -0.81100
O314        O  0.68064404  0.59204121  0.96809098    -0.65800
O315        O  0.68885842  0.57860348  0.07640557    -1.12400
C316        C  0.74046120  0.64575268  0.06659463     1.05800
O317        O  0.72143245  0.59340034  0.96303483    -0.79000
O318        O  0.75220968  0.59102857  0.02346549    -0.66600
Ni319      Ni  0.66101419  0.57155537  0.10864523     1.34900
C320        C  0.75452411  0.58366522  0.05856349     0.84500
O321        O  0.66496904  0.55596964  0.01744219    -0.79600
O322        O  0.65454599  0.54442713  0.07884259    -0.89800
C323        C  0.70008605  0.59428221  0.94738363     0.84100
O324        O  0.63519257  0.59004239  0.08161841    -0.68000
O325        O  0.74458004  0.63927418  0.03231604    -0.87300
C326        C  0.63453902  0.60268368  0.04998274     0.84900
C327        C  0.65600094  0.54092685  0.04276149     1.06500
H328        H  0.69252381  0.62687654  0.02530752     0.38300
O329        O  0.70289109  0.61246719  0.03002911    -1.10000
O330        O  0.73840764  0.58879365  0.08425852    -0.66600
Ni331      Ni  0.70677546  0.60710860  0.08448606     1.26300
O332        O  0.65307411  0.60389478  0.02695782    -0.66900
O333        O  0.72481680  0.63590070  0.08988584    -0.79200
C334        C  0.68704713  0.60025142  0.15811137     0.84300
O335        O  0.70739017  0.60141731  0.13932557    -0.66300
Ni336      Ni  0.73193939  0.61608142  0.99893708     1.27400
Ni337      Ni  0.68359752  0.58469984  0.02256208     1.26100
H338        H  0.70026785  0.56483420  0.07946634     0.38800
O339        O  0.67802829  0.59665010  0.64528358    -0.81100
O340        O  0.68253699  0.58222215  0.47158086    -0.65800
O341        O  0.69618063  0.57595340  0.57945540    -1.12400
C342        C  0.74477688  0.64579646  0.55320676     1.05800
O343        O  0.72235541  0.58767847  0.45972016    -0.79000
O344        O  0.75660811  0.59144287  0.51515617    -0.66600
Ni345      Ni  0.67057633  0.56921010  0.61627584     1.34900
C346        C  0.75979759  0.58329993  0.54978345     0.84500
O347        O  0.67177194  0.54786773  0.52737734    -0.79600
O348        O  0.66206490  0.54079101  0.59026541    -0.89800
C349        C  0.70030804  0.58529340  0.44768891     0.84100
O350        O  0.64353231  0.58737975  0.59185242    -0.68000
O351        O  0.74512683  0.63927938  0.51849536    -0.87300
C352        C  0.64036406  0.59679388  0.55796021     0.84900
C353        C  0.66296457  0.53454848  0.55531905     1.06500
H354        H  0.69405370  0.62163310  0.52268703     0.38300
O355        O  0.70586616  0.60826101  0.52703154    -1.10000
O356        O  0.74449138  0.58755382  0.57679068    -0.66600
Ni357      Ni  0.71352661  0.60569321  0.58086658     1.26300
O358        O  0.65679063  0.59558728  0.53143595    -0.66900
O359        O  0.73188563  0.63538733  0.58018402    -0.79200
C360        C  0.69967059  0.60047325  0.65805509     0.84300
O361        O  0.71828989  0.60208612  0.63543460    -0.66300
Ni362      Ni  0.73250951  0.61318592  0.49088730     1.27400
Ni363      Ni  0.68840131  0.57841041  0.52604036     1.26100
H364        H  0.70820296  0.56269484  0.58308114     0.38800
O365        O  0.08337457  0.22299691  0.91865022    -0.81100
O366        O  0.10255702  0.21844425  0.09573756    -0.65800
O367        O  0.10641010  0.20725525  0.98800647    -1.12400
C368        C  0.03334144  0.16241274  0.01891112     1.05800
O369        O  0.10021033  0.17920112  0.10706260    -0.79000
O370        O  0.09158140  0.14606440  0.05505530    -0.66600
Ni371      Ni  0.10898697  0.23423503  0.95115097     1.34900
C372        C  0.09689357  0.14246722  0.02013747     0.84500
O373        O  0.13492279  0.23262148  0.04078566    -0.79600
O374        O  0.13477760  0.24880841  0.98003525    -0.89800
C375        C  0.10202129  0.20018977  0.11926529     0.84100
O376        O  0.08441426  0.25483850  0.97267764    -0.68000
O377        O  0.04230921  0.15989601  0.05307395    -0.87300
C378        C  0.07873936  0.25821508  0.00746353     0.84900
C379        C  0.14318688  0.24736332  0.01452920     1.06500
H380        H  0.06094808  0.20704800  0.04473044     0.38300
O381        O  0.07504585  0.19618344  0.04099351    -1.10000
O382        O  0.09322384  0.15858627  0.99304052    -0.66600
Ni383      Ni  0.07575293  0.18964949  0.98784009     1.26300
O384        O  0.08560800  0.24391352  0.03559453    -0.66900
O385        O  0.04444786  0.17337332  0.99052340    -0.79200
C386        C  0.08112073  0.20158041  0.90872830     0.84300
O387        O  0.07792211  0.18448304  0.93378997    -0.66300
Ni388      Ni  0.07162434  0.17020844  0.07863229     1.27400
Ni389      Ni  0.10505069  0.21412197  0.04161020     1.26100
H390        H  0.12042978  0.19628909  0.98409700     0.38800
O391        O  0.07372621  0.18496614  0.60565944    -0.81100
O392        O  0.09397038  0.18129152  0.43101699    -0.65800
O393        O  0.10271901  0.18473320  0.54023375    -1.12400
C394        C  0.06655373  0.26412930  0.51186239     1.05800
O395        O  0.11381400  0.21547801  0.42602792    -0.79000
O396        O  0.12018301  0.25077407  0.47760014    -0.66600
Ni397      Ni  0.08993025  0.16086420  0.57608533     1.34900
C398        C  0.13065262  0.24666714  0.51026209     0.84500
O399        O  0.11128239  0.14848006  0.48699963    -0.79600
O400        O  0.10532742  0.13500451  0.54883910    -0.89800
C401        C  0.10414710  0.19791839  0.41008233     0.84100
O402        O  0.05861331  0.15626667  0.55229845    -0.68000
O403        O  0.07043011  0.25999027  0.47641641    -0.87300
C404        C  0.05042433  0.15984921  0.51816166     0.84900
C405        C  0.11248260  0.13183704  0.51422655     1.06500
H406        H  0.06518487  0.21233389  0.48631536     0.38300
O407        O  0.08306216  0.21329345  0.48895641    -1.10000
O408        O  0.12214883  0.23115589  0.53532778    -0.66600
Ni409      Ni  0.08904651  0.21737642  0.54189592     1.26300
O410        O  0.06369016  0.16869826  0.49044583    -0.66900
O411        O  0.07406873  0.24981663  0.54025593    -0.79200
C412        C  0.08537190  0.20200184  0.61949403     0.84300
O413        O  0.09437120  0.21835448  0.59679237    -0.66300
Ni414      Ni  0.09231025  0.23758256  0.45205029     1.27400
Ni415      Ni  0.09734829  0.18119332  0.48641844     1.26100
H416        H  0.12052843  0.18501227  0.54438891     0.38800
O417        O  0.27782072  0.42406312  0.93294212    -0.81100
O418        O  0.26990230  0.42711104  0.11346403    -0.65800
O419        O  0.27886621  0.44346975  0.00596444    -1.12400
C420        C  0.36136425  0.40997676  0.02777312     1.05800
O421        O  0.30677183  0.44097684  0.12818585    -0.79000
O422        O  0.33606432  0.46022265  0.07336035    -0.66600
Ni423      Ni  0.25408356  0.43594096  0.96946334     1.34900
C424        C  0.33406136  0.47050018  0.03991834     0.84500
O425        O  0.24105741  0.45059470  0.06128960    -0.79600
O426        O  0.22702766  0.44751702  0.00103602    -0.89800
C427        C  0.28473298  0.43523573  0.13760059     0.84100
O428        O  0.24923269  0.40358285  0.98856991    -0.68000
O429        O  0.35769426  0.41558606  0.06249217    -0.87300
C430        C  0.24836777  0.39412676  0.02272152     0.84900
C431        C  0.22382835  0.45273060  0.03607267     1.06500
H432        H  0.30451243  0.40254076  0.05872713     0.38300
O433        O  0.30603004  0.41985462  0.05626570    -1.10000
O434        O  0.32589940  0.46000770  0.01084396    -0.66600
Ni435      Ni  0.31176561  0.42869396  0.00293210     1.26300
O436        O  0.25724489  0.40425606  0.05173518    -0.66900
O437        O  0.34466756  0.41330638  0.00164793    -0.79200
C438        C  0.30016708  0.42913191  0.92412073     0.84300
O439        O  0.31526475  0.43637522  0.94877012    -0.66300
Ni440      Ni  0.33067404  0.42804303  0.09292823     1.27400
Ni441      Ni  0.27331771  0.43480839  0.05937852     1.26100
H442        H  0.28026129  0.46079528  0.00356809     0.38800
O443        O  0.27339880  0.41524740  0.44119622    -0.81100
O444        O  0.28224956  0.41457752  0.61782412    -0.65800
O445        O  0.27844795  0.43551278  0.51095587    -1.12400
C446        C  0.36320373  0.40563264  0.51201803     1.05800
O447        O  0.31594735  0.43622364  0.61782260    -0.79000
O448        O  0.34542414  0.45293594  0.56026780    -0.66600
Ni449      Ni  0.25165956  0.42930869  0.47844830     1.34900
C450        C  0.33702589  0.46568882  0.53144436     0.84500
O451        O  0.24558744  0.43735707  0.57383720    -0.79600
O452        O  0.22876454  0.44331883  0.51417676    -0.89800
C453        C  0.29953461  0.42428519  0.63626537     0.84100
O454        O  0.24358333  0.39796988  0.49880179    -0.68000
O455        O  0.36190509  0.40692780  0.54860425    -0.87300
C456        C  0.24817162  0.38562373  0.52998809     0.84900
C457        C  0.22788356  0.44459647  0.55091641     1.06500
H458        H  0.31158640  0.39507486  0.55128265     0.38300
O459        O  0.31151732  0.41250440  0.55077322    -1.10000
O460        O  0.32296401  0.45672426  0.50675378    -0.66600
Ni461      Ni  0.31160694  0.42439379  0.49819506     1.26300
O462        O  0.26325806  0.39260832  0.55571028    -0.66900
O463        O  0.34559450  0.41273913  0.48861215    -0.79200
C464        C  0.29057470  0.42725947  0.42462234     0.84300
O465        O  0.30838115  0.43482637  0.44445770    -0.66300
Ni466      Ni  0.33829252  0.42141702  0.58237904     1.27400
Ni467      Ni  0.27845617  0.42408595  0.56361463     1.26100
H468        H  0.27846535  0.45290515  0.51119614     0.38800
O469        O  0.95836721  0.49191127  0.99466842    -0.81100
O470        O  0.96983499  0.49711907  0.16664497    -0.65800
O471        O  0.98365046  0.50229548  0.05899398    -1.12400
C472        C  0.00188710  0.41764455  0.07737751     1.05800
O473        O  0.00580418  0.47743189  0.17231950    -0.79000
O474        O  0.03415410  0.45776096  0.11810083    -0.66600
Ni475      Ni  0.96278999  0.51988843  0.02358269     1.34900
C476        C  0.04013305  0.46660550  0.08497215     0.84500
O477        O  0.97137053  0.53566312  0.11438930    -0.79600
O478        O  0.96694382  0.54835591  0.05153847    -0.89800
C479        C  0.98682331  0.48704254  0.18782160     0.84100
O480        O  0.93120913  0.51533172  0.04799205    -0.68000
O481        O  0.00187808  0.42138530  0.11338533    -0.87300
C482        C  0.92428411  0.50700705  0.08099848     0.84900
C483        C  0.96854248  0.55237749  0.08746165     1.06500
H484        H  0.96484398  0.45895921  0.10979435     0.38300
O485        O  0.98074465  0.46663786  0.10695835    -1.10000
O486        O  0.02433573  0.47256719  0.05870221    -0.66600
Ni487      Ni  0.98904928  0.46829631  0.05342825     1.26300
O488        O  0.93965466  0.49845474  0.10662971    -0.66900
O489        O  0.99605187  0.43398733  0.05103628    -0.79200
C490        C  0.97726899  0.48286353  0.97801646     0.84300
O491        O  0.99437854  0.47239301  0.99865772    -0.66300
Ni492      Ni  0.00310191  0.44986805  0.14199507     1.27400
Ni493      Ni  0.97560613  0.50087248  0.11216466     1.26100
H494        H  0.99960704  0.50990188  0.05662420     0.38800
O495        O  0.97604333  0.50929372  0.48615591    -0.81100
O496        O  0.97582671  0.51149473  0.66430315    -0.65800
O497        O  0.99702689  0.51418272  0.55885990    -1.12400
C498        C  0.00158599  0.42847853  0.57925896     1.05800
O499        O  0.00806346  0.48682302  0.67664464    -0.79000
O500        O  0.03733516  0.46515556  0.62576652    -0.66600
Ni501      Ni  0.98159466  0.53475514  0.52025178     1.34900
C502        C  0.04611258  0.47251346  0.59330068     0.84500
O503        O  0.98629770  0.54885521  0.61363614    -0.79600
O504        O  0.98569391  0.56211045  0.55108513    -0.89800
C505        C  0.99002781  0.49976664  0.68835477     0.84100
O506        O  0.94829581  0.53192934  0.53775172    -0.68000
O507        O  0.00115432  0.43246354  0.61509247    -0.87300
C508        C  0.93799188  0.52583195  0.56960077     0.84900
C509        C  0.98629970  0.56586682  0.58712078     1.06500
H510        H  0.96904259  0.47445659  0.60698950     0.38300
O511        O  0.98604180  0.47982275  0.60638021    -1.10000
O512        O  0.03254460  0.47914590  0.56448657    -0.66600
Ni513      Ni  0.99730934  0.47990461  0.55421128     1.26300
O514        O  0.95012965  0.51699054  0.59897614    -0.66900
O515        O  0.99892891  0.44517577  0.55246402    -0.79200
C516        C  0.99120054  0.49269948  0.47624783     0.84300
O517        O  0.00588900  0.48188812  0.50058213    -0.66300
Ni518      Ni  0.00403347  0.46041547  0.64443579     1.27400
Ni519      Ni  0.98557706  0.51415628  0.61095199     1.26100
H520        H  0.01410066  0.51925016  0.55929675     0.38800
C521        C  0.98662033  0.50110666  0.73035054     0.01100
C522        C  0.00698471  0.50728583  0.75312471     0.03900
C523        C  0.00554146  0.50481829  0.79355434    -0.12100
C524        C  0.98389328  0.49578879  0.81142526     0.23200
C525        C  0.96332100  0.48998193  0.78891828    -0.12700
C526        C  0.96467037  0.49259041  0.74834952     0.04600
C527        C  0.98274649  0.49249245  0.85400312     0.27100
C528        C  0.99265020  0.47124478  0.87288602    -0.13400
C529        C  0.99074166  0.46778387  0.91333891     0.05100
C530        C  0.97960036  0.48605424  0.93526051    -0.09400
C531        C  0.97073392  0.50789990  0.91591506     0.06000
C532        C  0.97193388  0.51080657  0.87545071    -0.13700
Br533      Br  0.93368371  0.47772363  0.81394181    -0.05800
Br534      Br  0.03716949  0.51886259  0.72910432    -0.00200
Br535      Br  0.00248006  0.43744268  0.93760539     0.00300
Br536      Br  0.95908221  0.54012894  0.84888907    -0.04100
Br537      Br  0.93736624  0.48239003  0.71765765     0.00400
Br538      Br  0.03338918  0.51338280  0.82464486    -0.03400
Br539      Br  0.00897186  0.44699311  0.84292447    -0.04300
Br540      Br  0.95834537  0.53502050  0.94389380    -0.00300
C541        C  0.99071929  0.48603924  0.43550072     0.01100
C542        C  0.96747615  0.48350011  0.41718504     0.03900
C543        C  0.96624421  0.48257133  0.37680902    -0.12100
C544        C  0.98823121  0.48375706  0.35454873     0.23200
C545        C  0.01162177  0.48430459  0.37296611    -0.12700
C546        C  0.01290380  0.48530838  0.41342698     0.04600
C547        C  0.98669573  0.48448297  0.31177513     0.27100
C548        C  0.99196213  0.46342579  0.29209576    -0.13400
C549        C  0.99099459  0.46415656  0.25157157     0.05100
C550        C  0.98513399  0.48613087  0.23039103    -0.09400
C551        C  0.97903837  0.50704997  0.25018243     0.06000
C552        C  0.97970721  0.50616709  0.29083208    -0.13700
Br553      Br  0.04186495  0.48465803  0.34249422    -0.05800
Br554      Br  0.93723151  0.48050256  0.44741507    -0.00200
Br555      Br  0.99661113  0.43453167  0.22550781     0.00300
Br556      Br  0.97133629  0.53478481  0.31791832    -0.04100
Br557      Br  0.04503131  0.48706460  0.43794596     0.00400
Br558      Br  0.93436649  0.48023808  0.35167162    -0.03400
Br559      Br  0.00042951  0.43349824  0.32085844    -0.04300
Br560      Br  0.97113770  0.53728938  0.22198746    -0.00300
C561        C  0.20427610  0.45431546  0.56685456     0.01100
C562        C  0.19361267  0.47592721  0.54991050     0.03900
C563        C  0.16815555  0.48164894  0.55549359    -0.12100
C564        C  0.15348939  0.46612398  0.57903936     0.23200
C565        C  0.16478016  0.44597454  0.59936729    -0.12700
C566        C  0.19015653  0.44002069  0.59334894     0.04600
C567        C  0.12593746  0.46963598  0.58033409     0.27100
C568        C  0.11473781  0.48587937  0.60546599    -0.13400
C569        C  0.08856053  0.48711322  0.60947786     0.05100
C570        C  0.07350962  0.47228834  0.58809412    -0.09400
C571        C  0.08475662  0.45662984  0.56197783     0.06000
C572        C  0.11087877  0.45531663  0.55811912    -0.13700
Br573      Br  0.14482296  0.42558118  0.63338676    -0.05800
Br574      Br  0.21398882  0.49754001  0.51862605    -0.00200
Br575      Br  0.07335508  0.50946381  0.64360872     0.00300
Br576      Br  0.12617254  0.43336819  0.52305384    -0.04100
Br577      Br  0.20453286  0.41099672  0.61869321     0.00400
Br578      Br  0.15305110  0.50985095  0.52894534    -0.03400
Br579      Br  0.13539653  0.50608810  0.63471554    -0.04300
Br580      Br  0.06452000  0.43591639  0.53287934    -0.00300
C581        C  0.19823328  0.46002778  0.04823065     0.01100
C582        C  0.18581307  0.44571371  0.07688058     0.03900
C583        C  0.16014556  0.44965295  0.08371605    -0.12100
C584        C  0.14686868  0.46843110  0.06303921     0.23200
C585        C  0.15954998  0.48386448  0.03648796    -0.12700
C586        C  0.18504609  0.47935894  0.02842508     0.04600
C587        C  0.11920067  0.47006037  0.06629562     0.27100
C588        C  0.10465553  0.45583510  0.04314595    -0.13400
C589        C  0.07860213  0.45542566  0.04819544     0.05100
C590        C  0.06695442  0.46927264  0.07650075    -0.09400
C591        C  0.08142531  0.48390329  0.09906380     0.06000
C592        C  0.10752252  0.48423122  0.09407702    -0.13700
Br593      Br  0.14162399  0.51065340  0.01043133    -0.05800
Br594      Br  0.20318796  0.41918747  0.10458813    -0.00200
Br595      Br  0.05924145  0.43446044  0.01819551     0.00300
Br596      Br  0.12742951  0.50324320  0.12632971    -0.04100
Br597      Br  0.20175359  0.49944790  0.98981349     0.00400
Br598      Br  0.14257753  0.42826562  0.11955057    -0.03400
Br599      Br  0.12076457  0.43581396  0.00596382    -0.04300
Br600      Br  0.06533561  0.50357469  0.13667576    -0.00300
C601        C  0.30791210  0.42586592  0.88354051     0.01100
C602        C  0.32041232  0.44413499  0.86172227     0.03900
C603        C  0.32106294  0.44383476  0.82101901    -0.12100
C604        C  0.30982313  0.42502541  0.80229777     0.23200
C605        C  0.29980287  0.40557702  0.82426863    -0.12700
C606        C  0.29906438  0.40582757  0.86469848     0.04600
C607        C  0.30755116  0.42566628  0.75957435     0.27100
C608        C  0.28473284  0.43319978  0.74195001    -0.13400
C609        C  0.28135452  0.43122827  0.70195573     0.05100
C610        C  0.30119461  0.42270445  0.67905034    -0.09400
C611        C  0.32418349  0.41542343  0.69686304     0.06000
C612        C  0.32709612  0.41638076  0.73708261    -0.13700
Br613      Br  0.28590766  0.37907364  0.79851420    -0.05800
Br614      Br  0.33545010  0.47026041  0.88682056    -0.00200
Br615      Br  0.24987690  0.44118115  0.67862517     0.00300
Br616      Br  0.35753095  0.40425773  0.76185958    -0.04100
Br617      Br  0.28596784  0.37835235  0.89408339     0.00400
Br618      Br  0.33597772  0.46983124  0.79070429    -0.03400
Br619      Br  0.25812580  0.44627816  0.77296781    -0.04300
Br620      Br  0.35177106  0.40351924  0.66650444    -0.00300
C621        C  0.27708569  0.43887194  0.17802263     0.01100
C622        C  0.26564605  0.42041793  0.20085066     0.03900
C623        C  0.26577349  0.42114905  0.24144505    -0.12100
C624        C  0.27780998  0.43989945  0.25912597     0.23200
C625        C  0.28667200  0.45956984  0.23627331    -0.12700
C626        C  0.28553006  0.45942576  0.19582711     0.04600
C627        C  0.28200804  0.43841560  0.30153320     0.27100
C628        C  0.26332605  0.44666030  0.32658019    -0.13400
C629        C  0.26665552  0.44373836  0.36681953     0.05100
C630        C  0.28882279  0.43264480  0.38233021    -0.09400
C631        C  0.30803866  0.42539601  0.35713965     0.06000
C632        C  0.30460199  0.42828267  0.31679021    -0.13700
Br633      Br  0.30156904  0.48609437  0.26040466    -0.05800
Br634      Br  0.25138582  0.39330987  0.17737104    -0.00200
Br635      Br  0.24082474  0.45548471  0.40063447     0.00300
Br636      Br  0.33057419  0.41791491  0.28211973    -0.04100
Br637      Br  0.29540292  0.48757038  0.16469618     0.00400
Br638      Br  0.25051711  0.39594317  0.27310873    -0.03400
Br639      Br  0.23308865  0.46179260  0.30544025    -0.04300
Br640      Br  0.33836404  0.41015136  0.37764718    -0.00300
C641        C  0.05327788  0.28725819  0.51981311     0.01100
C642        C  0.05985041  0.30891465  0.49900911     0.03900
C643        C  0.04800584  0.33099779  0.50725243    -0.12100
C644        C  0.03000413  0.33185846  0.53682263     0.23200
C645        C  0.02318908  0.31041003  0.55734226    -0.12700
C646        C  0.03416816  0.28807242  0.54800543     0.04600
C647        C  0.02080484  0.35571594  0.54923239     0.27100
C648        C  0.03309438  0.36609784  0.57959924    -0.13400
C649        C  0.02622646  0.38946651  0.59001807     0.05100
C650        C  0.00734406  0.40317442  0.56907747    -0.09400
C651        C  0.99537556  0.39278301  0.53796221     0.06000
C652        C  0.00172425  0.36889765  0.52875110    -0.13700
Br653      Br  0.99990850  0.31193878  0.59981879    -0.05800
Br654      Br  0.08628066  0.30923418  0.46077319    -0.00200
Br655      Br  0.04476591  0.40272027  0.63136570     0.00300
Br656      Br  0.98468389  0.35415191  0.48764649    -0.04100
Br657      Br  0.02178941  0.25865419  0.57229359     0.00400
Br658      Br  0.05769533  0.36060796  0.47992133    -0.03400
Br659      Br  0.06053540  0.34851312  0.60558070    -0.04300
Br660      Br  0.97030938  0.41090648  0.50768747    -0.00300
C661        C  0.23348039  0.36286777  0.53590130     0.01100
C662        C  0.24509735  0.33970219  0.54118462     0.03900
C663        C  0.23068540  0.31852241  0.54139414    -0.12100
C664        C  0.20452678  0.32012895  0.53539165     0.23200
C665        C  0.19288000  0.34323064  0.53112332    -0.12700
C666        C  0.20708994  0.36429081  0.53120466     0.04600
C667        C  0.18906042  0.29798994  0.53122181     0.27100
C668        C  0.18687943  0.28787729  0.49496280    -0.13400
C669        C  0.16955620  0.26956523  0.48923260     0.05100
C670        C  0.15292697  0.26177125  0.51920927    -0.09400
C671        C  0.15597323  0.27131856  0.55612700     0.06000
C672        C  0.17420215  0.28882863  0.56208397    -0.13700
Br673      Br  0.15711796  0.34598099  0.52381857    -0.05800
Br674      Br  0.28095261  0.33692601  0.54427057    -0.00200
Br675      Br  0.16931515  0.25495392  0.43992804     0.00300
Br676      Br  0.17826852  0.30133511  0.61242511    -0.04100
Br677      Br  0.18977240  0.39519086  0.52335341     0.00400
Br678      Br  0.24672068  0.28715544  0.54941881    -0.03400
Br679      Br  0.20687386  0.30023823  0.45228469    -0.04300
Br680      Br  0.13393866  0.26252380  0.59839840    -0.00300
C681        C  0.06498313  0.28081864  0.01555617     0.01100
C682        C  0.04348994  0.28064634  0.03924308     0.03900
C683        C  0.03141945  0.30256127  0.04792275    -0.12100
C684        C  0.04066096  0.32460959  0.03278090     0.23200
C685        C  0.06170896  0.32481898  0.00840245    -0.12700
C686        C  0.07418487  0.30305633  0.00044059     0.04600
C687        C  0.02966077  0.34775012  0.04498577     0.27100
C688        C  0.00958971  0.35917248  0.02452055    -0.13400
C689        C  0.99998628  0.38177006  0.03526842     0.05100
C690        C  0.01086991  0.39330674  0.06621234    -0.09400
C691        C  0.03158491  0.38176785  0.08604087     0.06000
C692        C  0.04032629  0.35881286  0.07612968    -0.13700
Br693      Br  0.07367776  0.35513549  0.98657353    -0.05800
Br694      Br  0.03028502  0.25058441  0.05958837    -0.00200
Br695      Br  0.97156873  0.39620961  0.00787206     0.00300
Br696      Br  0.06730783  0.34234140  0.10489689    -0.04100
Br697      Br  0.10523303  0.30425179  0.97179088     0.00400
Br698      Br  0.00237657  0.30260634  0.08097882    -0.03400
Br699      Br  0.99546266  0.34359201  0.98164216    -0.04300
Br700      Br  0.05021314  0.39778133  0.12440434    -0.00300
C701        C  0.16270836  0.26474181  0.02425968     0.01100
C702        C  0.15884497  0.28045514  0.05477520     0.03900
C703        C  0.17514370  0.29965009  0.05955397    -0.12100
C704        C  0.19518777  0.30362635  0.03369205     0.23200
C705        C  0.19987748  0.28720412  0.00472550    -0.12700
C706        C  0.18373558  0.26794642  0.99994393     0.04600
C707        C  0.20881660  0.32685460  0.03312198     0.27100
C708        C  0.19854603  0.34727686  0.01230041    -0.13400
C709        C  0.21117593  0.36920052  0.01015137     0.05100
C710        C  0.23470471  0.37101564  0.02826430    -0.09400
C711        C  0.24458984  0.35074541  0.05036720     0.06000
C712        C  0.23173917  0.32872960  0.05254796    -0.13700
Br713      Br  0.22792943  0.29185695  0.97038546    -0.05800
Br714      Br  0.12981844  0.27758205  0.08773515    -0.00200
Br715      Br  0.19499941  0.39710577  0.98389940     0.00300
Br716      Br  0.24557547  0.30089587  0.08157873    -0.04100
Br717      Br  0.19030012  0.24612300  0.95940682     0.00400
Br718      Br  0.16938390  0.32152779  0.10026583    -0.03400
Br719      Br  0.16694203  0.34506408  0.98621258    -0.04300
Br720      Br  0.27600945  0.35271372  0.07670512    -0.00300
C721        C  0.08835101  0.20176906  0.66204535     0.01100
C722        C  0.09768361  0.18043211  0.68201818     0.03900
C723        C  0.09782238  0.17849701  0.72265327    -0.12100
C724        C  0.08834572  0.19769030  0.74368687     0.23200
C725        C  0.08013843  0.21941595  0.72400143    -0.12700
C726        C  0.08021160  0.22152105  0.68324590     0.04600
C727        C  0.08726952  0.19531903  0.78656241     0.27100
C728        C  0.06499209  0.18855839  0.80560597    -0.13400
C729        C  0.06304373  0.18938233  0.84611084     0.05100
C730        C  0.08338101  0.19706947  0.86739020    -0.09400
C731        C  0.10610082  0.20234484  0.84852713     0.06000
C732        C  0.10814722  0.20112085  0.80829932    -0.13700
Br733      Br  0.06866508  0.24621635  0.75323320    -0.05800
Br734      Br  0.11096541  0.15379334  0.65389134    -0.00200
Br735      Br  0.03219324  0.18151633  0.87201388     0.00300
Br736      Br  0.13953238  0.20751315  0.78286253    -0.04100
Br737      Br  0.06795552  0.25098013  0.65683579     0.00400
Br738      Br  0.11117539  0.14962978  0.74975092    -0.03400
Br739      Br  0.03716650  0.17852694  0.77594603    -0.04300
Br740      Br  0.13451151  0.21155263  0.87796053    -0.00300
C741        C  0.10229144  0.20300824  0.16111172     0.01100
C742        C  0.07993750  0.20020769  0.18210443     0.03900
C743        C  0.08021772  0.19963438  0.22267018    -0.12100
C744        C  0.10283222  0.20251127  0.24239661     0.23200
C745        C  0.12505212  0.20642626  0.22111574    -0.12700
C746        C  0.12478306  0.20648940  0.18046530     0.04600
C747        C  0.10318752  0.20112319  0.28541071     0.27100
C748        C  0.09327832  0.22046805  0.30584252    -0.13400
C749        C  0.09291613  0.21891089  0.34649196     0.05100
C750        C  0.10328230  0.19832871  0.36721961    -0.09400
C751        C  0.11328750  0.17898226  0.34671778     0.06000
C752        C  0.11283139  0.18021875  0.30592941    -0.13700
Br753      Br  0.15591842  0.21121625  0.24764291    -0.05800
Br754      Br  0.04888001  0.19715662  0.15492352    -0.00200
Br755      Br  0.07694106  0.24472838  0.37351110     0.00300
Br756      Br  0.12508493  0.15315230  0.27791804    -0.04100
Br757      Br  0.15522080  0.21038202  0.15115593     0.00400
Br758      Br  0.04971029  0.19403589  0.25115112    -0.03400
Br759      Br  0.08009777  0.24919161  0.27800510    -0.04300
Br760      Br  0.12879277  0.15135518  0.37422829    -0.00300
C761        C  0.78315827  0.56915479  0.55902956     0.01100
C762        C  0.79802808  0.57477284  0.59083329     0.03900
C763        C  0.82214406  0.56425121  0.59545591    -0.12100
C764        C  0.83177489  0.54856907  0.56807642     0.23200
C765        C  0.81679030  0.54242133  0.53710031    -0.12700
C766        C  0.79229987  0.55206793  0.53328023     0.04600
C767        C  0.85878095  0.54183845  0.56860542     0.27100
C768        C  0.87565797  0.55864795  0.55305344    -0.13400
C769        C  0.90140751  0.55378805  0.55587455     0.05100
C770        C  0.91068542  0.53120298  0.57190817    -0.09400
C771        C  0.89366594  0.51419461  0.58729102     0.06000
C772        C  0.86770982  0.51958064  0.58564849    -0.13700
Br773      Br  0.83076277  0.52275174  0.49772182    -0.05800
Br774      Br  0.78699321  0.59880737  0.62601378    -0.00200
Br775      Br  0.92368775  0.57925582  0.53979572     0.00300
Br776      Br  0.84417886  0.49638748  0.60556496    -0.04100
Br777      Br  0.77134571  0.54164934  0.49265134     0.00400
Br778      Br  0.84319085  0.57314545  0.63718250    -0.03400
Br779      Br  0.86327305  0.58834643  0.52696337    -0.04300
Br780      Br  0.90556089  0.48339457  0.60953797    -0.00300
C781        C  0.89701141  0.50934496  0.08969794     0.01100
C782        C  0.88852646  0.52366641  0.11995742     0.03900
C783        C  0.86370017  0.53311657  0.12003826    -0.12100
C784        C  0.84707363  0.52809390  0.09028128     0.23200
C785        C  0.85477997  0.51179759  0.06248255    -0.12700
C786        C  0.87953781  0.50233495  0.06238149     0.04600
C787        C  0.82315555  0.54256148  0.08467831     0.27100
C788        C  0.80041760  0.53467043  0.10092189    -0.13400
C789        C  0.77783694  0.54797999  0.09297555     0.05100
C790        C  0.77798280  0.56968634  0.06950319    -0.09400
C791        C  0.80111331  0.57812156  0.05512411     0.06000
C792        C  0.82329517  0.56434209  0.06182274    -0.13700
Br793      Br  0.83191368  0.50416241  0.02245760    -0.05800
Br794      Br  0.91133486  0.53245263  0.15932813    -0.00200
Br795      Br  0.74674078  0.53565563  0.11259033     0.00300
Br796      Br  0.85401666  0.57512644  0.03858565    -0.04100
Br797      Br  0.88986734  0.48017743  0.02403439     0.00400
Br798      Br  0.85293895  0.55475456  0.15890066    -0.03400
Br799      Br  0.80034249  0.50540790  0.13352690    -0.04300
Br800      Br  0.80310952  0.60934950  0.02768171    -0.00300
C801        C  0.69860861  0.59788311  0.90488941     0.01100
C802        C  0.68556106  0.58186007  0.88274542     0.03900
C803        C  0.68672653  0.58416037  0.84212801    -0.12100
C804        C  0.70083414  0.60249224  0.82353250     0.23200
C805        C  0.71329485  0.61890765  0.84558207    -0.12700
C806        C  0.71195504  0.61680074  0.88612907     0.04600
C807        C  0.70293027  0.60399069  0.78079790     0.27100
C808        C  0.71835598  0.58713538  0.76224318    -0.13400
C809        C  0.71740791  0.58598511  0.72186982     0.05100
C810        C  0.70278401  0.60312562  0.69972144    -0.09400
C811        C  0.68906309  0.62127013  0.71807079     0.06000
C812        C  0.68837267  0.62117418  0.75861086    -0.13700
Br813      Br  0.73298148  0.64371788  0.82018425    -0.05800
Br814      Br  0.66729908  0.55588510  0.90769379    -0.00200
Br815      Br  0.73387868  0.55936547  0.69753549     0.00300
Br816      Br  0.66643279  0.64368376  0.78367240    -0.04100
Br817      Br  0.72788203  0.64046548  0.91583786     0.00400
Br818      Br  0.66970849  0.56163801  0.81172857    -0.03400
Br819      Br  0.74015449  0.56516348  0.79240953    -0.04300
Br820      Br  0.67138664  0.64633629  0.68753530    -0.00300
C821        C  0.69575511  0.58668932  0.40545013     0.01100
C822        C  0.67668727  0.60235870  0.38948351     0.03900
C823        C  0.67465203  0.60632410  0.34911346    -0.12100
C824        C  0.69189134  0.59512993  0.32459119     0.23200
C825        C  0.71081326  0.57946590  0.34029786    -0.12700
C826        C  0.71236796  0.57475966  0.38049885     0.04600
C827        C  0.68903694  0.59809360  0.28209074     0.27100
C828        C  0.67523057  0.58123253  0.26301158    -0.13400
C829        C  0.67469999  0.58195491  0.22248615     0.05100
C830        C  0.68704391  0.60033449  0.20073856    -0.09400
C831        C  0.69978910  0.61804323  0.21999339     0.06000
C832        C  0.70118999  0.61661714  0.26064854    -0.13700
Br833      Br  0.73475146  0.56466362  0.30637054    -0.05800
Br834      Br  0.65404447  0.61958561  0.42245490    -0.00200
Br835      Br  0.65871418  0.55637355  0.19723118     0.00300
Br836      Br  0.72011108  0.63962372  0.28715044    -0.04100
Br837      Br  0.73635208  0.55076925  0.40082196     0.00400
Br838      Br  0.64845564  0.62731656  0.32704596    -0.03400
Br839      Br  0.65749807  0.55672725  0.29276602    -0.04300
Br840      Br  0.71441215  0.64478780  0.19104242    -0.00300
C841        C  0.94671832  0.71535125  0.58014104     0.01100
C842        C  0.96782372  0.71044209  0.60395293     0.03900
C843        C  0.97627186  0.68632398  0.61232176    -0.12100
C844        C  0.96424497  0.66711645  0.59583206     0.23200
C845        C  0.94305060  0.67204245  0.57250211    -0.12700
C846        C  0.93399901  0.69589883  0.56542223     0.04600
C847        C  0.97434798  0.64176947  0.60060606     0.27100
C848        C  0.99269519  0.63359475  0.57482609    -0.13400
C849        C  0.99890105  0.60878603  0.57403682     0.05100
C850        C  0.98576338  0.59168229  0.59746020    -0.09400
C851        C  0.96899890  0.60013227  0.62582049     0.06000
C852        C  0.96341351  0.62512588  0.62732625    -0.13700
Br853      Br  0.92690090  0.64601790  0.54878515    -0.05800
Br854      Br  0.98645026  0.73663169  0.62239206    -0.00200
Br855      Br  0.02565309  0.59835139  0.54073681     0.00300
Br856      Br  0.93919591  0.63667179  0.66384788    -0.04100
Br857      Br  0.90364539  0.70164769  0.53594298     0.00400
Br858      Br  0.00466519  0.67945542  0.64550749    -0.03400
Br859      Br  0.00766512  0.65626313  0.53803074    -0.04300
Br860      Br  0.95198639  0.57785147  0.66085860    -0.00300
C861        C  0.85342509  0.75595868  0.56666521     0.01100
C862        C  0.85108041  0.73992593  0.59961365     0.03900
C863        C  0.83108927  0.72387188  0.60255166    -0.12100
C864        C  0.81290110  0.72404955  0.57318016     0.23200
C865        C  0.81371864  0.74183412  0.54253620    -0.12700
C866        C  0.83405200  0.75741011  0.53894636     0.04600
C867        C  0.79526709  0.70365835  0.57143874     0.27100
C868        C  0.80408581  0.68152706  0.55766782    -0.13400
C869        C  0.78762243  0.66263144  0.55297258     0.05100
C870        C  0.76193580  0.66546271  0.56203362    -0.09400
C871        C  0.75313762  0.68743533  0.57659437     0.06000
C872        C  0.76977079  0.70642711  0.58139463    -0.13700
Br873      Br  0.78754639  0.74402013  0.50427684    -0.05800
Br874      Br  0.87646657  0.73800056  0.63913352    -0.00200
Br875      Br  0.80074042  0.63279682  0.53361084     0.00300
Br876      Br  0.75766394  0.73651596  0.60072542    -0.04100
Br877      Br  0.83559186  0.78033251  0.49525688     0.00400
Br878      Br  0.82946671  0.70034785  0.64553940    -0.03400
Br879      Br  0.83886174  0.67723754  0.54390821    -0.04300
Br880      Br  0.71806949  0.69218691  0.58719809    -0.00300
C881        C  0.95337384  0.70622418  0.08638203     0.01100
C882        C  0.94060938  0.69337821  0.11652148     0.03900
C883        C  0.94565890  0.66845410  0.12421189    -0.12100
C884        C  0.96259215  0.65585646  0.10086959     0.23200
C885        C  0.97615159  0.66875349  0.07198553    -0.12700
C886        C  0.97180731  0.69383927  0.06508115     0.04600
C887        C  0.96306780  0.62887887  0.10227838     0.27100
C888        C  0.98211519  0.61493315  0.12177407    -0.13400
C889        C  0.98355727  0.58955825  0.11898136     0.05100
C890        C  0.96561614  0.57807442  0.09721267    -0.09400
C891        C  0.94541542  0.59193623  0.08080455     0.06000
C892        C  0.94443917  0.61715849  0.08252272    -0.13700
Br893      Br  0.99949104  0.65161574  0.04008022    -0.05800
Br894      Br  0.91374247  0.70880588  0.14412094    -0.00200
Br895      Br  0.01075855  0.57092011  0.14311374     0.00300
Br896      Br  0.91792779  0.63578410  0.05626605    -0.04100
Br897      Br  0.99080523  0.71109061  0.02561676     0.00400
Br898      Br  0.92812452  0.65093850  0.16507468    -0.03400
Br899      Br  0.00638063  0.63078736  0.15150617    -0.04300
Br900      Br  0.91851283  0.57624031  0.05645808    -0.00300
C901        C  0.86127115  0.73794129  0.07396170     0.01100
C902        C  0.84132624  0.74685238  0.09646291     0.03900
C903        C  0.81997232  0.73292771  0.10309153    -0.12100
C904        C  0.81831069  0.71037501  0.08674594     0.23200
C905        C  0.83829491  0.70123901  0.06500794    -0.12700
C906        C  0.85998827  0.71451189  0.05971208     0.04600
C907        C  0.79489418  0.69691202  0.08896796     0.27100
C908        C  0.79325028  0.67595456  0.11367646    -0.13400
C909        C  0.77391648  0.65984476  0.10865827     0.05100
C910        C  0.75589009  0.66511583  0.07960764    -0.09400
C911        C  0.75634179  0.68711400  0.05735540     0.06000
C912        C  0.77606894  0.70278485  0.06151206    -0.13700
Br913      Br  0.83524743  0.67104519  0.04025348    -0.05800
Br914      Br  0.84226871  0.77858578  0.11623611    -0.00200
Br915      Br  0.77428638  0.62912335  0.13778657     0.00300
Br916      Br  0.77897768  0.73080521  0.02637300    -0.04100
Br917      Br  0.88811625  0.69953171  0.03404779     0.00400
Br918      Br  0.79228263  0.74507039  0.13278462    -0.03400
Br919      Br  0.81905860  0.66811645  0.15137044    -0.04300
Br920      Br  0.73073551  0.69495736  0.01927923    -0.00300
C921        C  0.91478823  0.80431489  0.91299741     0.01100
C922        C  0.89393443  0.79868038  0.89077395     0.03900
C923        C  0.89625950  0.79693476  0.85057785    -0.12100
C924        C  0.91893282  0.80244341  0.83183436     0.23200
C925        C  0.93934679  0.80955098  0.85361852    -0.12700
C926        C  0.93755458  0.80979269  0.89420422     0.04600
C927        C  0.92071886  0.80197260  0.78900791     0.27100
C928        C  0.93244965  0.78224648  0.77141164    -0.13400
C929        C  0.93351596  0.78184242  0.73076073     0.05100
C930        C  0.92311964  0.80125387  0.70764107    -0.09400
C931        C  0.91096916  0.82069824  0.72530183     0.06000
C932        C  0.90994503  0.82114774  0.76579408    -0.13700
Br933      Br  0.96970991  0.81906289  0.82766166    -0.05800
Br934      Br  0.86172968  0.79445159  0.91504354    -0.00200
Br935      Br  0.94973234  0.75508298  0.70673366     0.00300
Br936      Br  0.89411023  0.84828792  0.78967815    -0.04100
Br937      Br  0.96689143  0.81592524  0.92389522     0.00400
Br938      Br  0.86841841  0.78666549  0.82105313    -0.03400
Br939      Br  0.94735249  0.75599972  0.80303229    -0.04300
Br940      Br  0.89487277  0.84643929  0.69389470    -0.00300
C941        C  0.92694457  0.79690325  0.20882762     0.01100
C942        C  0.93255868  0.77718189  0.23515511     0.03900
C943        C  0.93066014  0.78004711  0.27526680    -0.12100
C944        C  0.92451719  0.80288979  0.28913469     0.23200
C945        C  0.91886332  0.82251882  0.26300488    -0.12700
C946        C  0.91928261  0.81940515  0.22312989     0.04600
C947        C  0.92202354  0.80621098  0.33113145     0.27100
C948        C  0.89829890  0.80493916  0.34843710    -0.13400
C949        C  0.89529904  0.80941174  0.38768788     0.05100
C950        C  0.91616820  0.81443675  0.41036695    -0.09400
C951        C  0.93974101  0.81718689  0.39233131     0.06000
C952        C  0.94266135  0.81278942  0.35285231    -0.13700
Br953      Br  0.90983389  0.85366464  0.28223664    -0.05800
Br954      Br  0.94400041  0.74664016  0.21668675    -0.00200
Br955      Br  0.86217531  0.81021506  0.40952202     0.00300
Br956      Br  0.97499936  0.81517705  0.32847286    -0.04100
Br957      Br  0.90732803  0.84586145  0.18890203     0.00400
Br958      Br  0.93573200  0.75266665  0.31137179    -0.03400
Br959      Br  0.86991204  0.79682860  0.31805488    -0.04300
Br960      Br  0.96831378  0.82636224  0.42133261    -0.00300
C961        C  0.16244890  0.98491578  0.47565841     0.01100
C962        C  0.14653586  0.99878571  0.44959171     0.03900
C963        C  0.14095731  0.02336437  0.45524204    -0.12100
C964        C  0.14980935  0.03428238  0.48796949     0.23200
C965        C  0.16528796  0.02071808  0.51436635    -0.12700
C966        C  0.17203388  0.99638938  0.50800448     0.04600
C967        C  0.14103506  0.05943961  0.49577058     0.27100
C968        C  0.15505962  0.07958911  0.48343075    -0.13400
C969        C  0.14582764  0.10330676  0.48907099     0.05100
C970        C  0.12208382  0.10709543  0.50597980    -0.09400
C971        C  0.10783217  0.08680852  0.51735904     0.06000
C972        C  0.11755608  0.06319703  0.51324326    -0.13700
Br973      Br  0.17679832  0.03560107  0.55981743    -0.05800
Br974      Br  0.13008513  0.98423568  0.40754461    -0.00200
Br975      Br  0.16620395  0.13048167  0.47505023     0.00300
Br976      Br  0.09867045  0.03572487  0.53150721    -0.04100
Br977      Br  0.19505673  0.97973774  0.54377001     0.00400
Br978      Br  0.12057643  0.04237925  0.41833182    -0.03400
Br979      Br  0.18684161  0.07455646  0.45845796    -0.04300
Br980      Br  0.07411943  0.09111235  0.53629446    -0.00300
C981        C  0.99214359  0.85114098  0.54864358     0.01100
C982        C  0.01241309  0.83865015  0.56735150     0.03900
C983        C  0.03714854  0.84527362  0.55877550    -0.12100
C984        C  0.04176913  0.86404454  0.53071242     0.23200
C985        C  0.02150401  0.87594096  0.51107994    -0.12700
C986        C  0.99679938  0.86985699  0.52052144     0.04600
C987        C  0.06770247  0.87197473  0.52224090     0.27100
C988        C  0.07607978  0.89345955  0.53718087    -0.13400
C989        C  0.09932618  0.90268688  0.52563393     0.05100
C990        C  0.11461229  0.89023302  0.49980593    -0.09400
C991        C  0.10656589  0.86849986  0.48543530     0.06000
C992        C  0.08319634  0.85934328  0.49669560    -0.13700
Br993      Br  0.02772632  0.90061042  0.47097808    -0.05800
Br994      Br  0.00621319  0.81191647  0.60378255    -0.00200
Br995      Br  0.10980909  0.93308844  0.54347027     0.00300
Br996      Br  0.07209553  0.82982444  0.47645256    -0.04100
Br997      Br  0.96931857  0.88814195  0.49633251     0.00400
Br998      Br  0.06470082  0.82879008  0.58562278    -0.03400
Br999      Br  0.05541880  0.91047730  0.57303598    -0.04300
Br1000     Br  0.12732228  0.85171483  0.44937026    -0.00300
C1001       C  0.10595639  0.11761382  0.01081483     0.01100
C1002       C  0.09500625  0.09727428  0.03014379     0.03900
C1003       C  0.10380254  0.07368365  0.02349316    -0.12100
C1004       C  0.12234091  0.06977336  0.99543217     0.23200
C1005       C  0.13156057  0.08972717  0.97335983    -0.12700
C1006       C  0.12390003  0.11357337  0.98148646     0.04600
C1007       C  0.13133256  0.04453980  0.98848383     0.27100
C1008       C  0.15385440  0.03513582  0.00500479    -0.13400
C1009       C  0.16161484  0.01085784  0.00021567     0.05100
C1010       C  0.14657050  0.99549591  0.97941717    -0.09400
C1011       C  0.12379556  0.00508700  0.96334155     0.06000
C1012       C  0.11666244  0.02953753  0.96696993    -0.13700
Br1013     Br  0.15385069  0.08408086  0.93075786    -0.05800
Br1014     Br  0.06576962  0.10098594  0.06257846    -0.00200
Br1015     Br  0.19341517  0.99940193  0.02091534     0.00300
Br1016     Br  0.08673719  0.04278049  0.94199013    -0.04100
Br1017     Br  0.13830284  0.14032981  0.95220868     0.00400
Br1018     Br  0.08983748  0.04643617  0.05225334    -0.03400
Br1019     Br  0.17412050  0.05582661  0.03405650    -0.04300
Br1020     Br  0.10104131  0.98455244  0.93837403    -0.00300
C1021       C  0.19635126  0.92958948  0.82415835     0.01100
C1022       C  0.20444665  0.90749713  0.80895340     0.03900
C1023       C  0.20514613  0.90517715  0.76880804    -0.12100
C1024       C  0.19630915  0.92420413  0.74358983     0.23200
C1025       C  0.18765124  0.94603255  0.75832359    -0.12700
C1026       C  0.18838229  0.94905838  0.79837692     0.04600
C1027       C  0.19746387  0.92145992  0.70139161     0.27100
C1028       C  0.21955939  0.92703467  0.68125234    -0.13400
C1029       C  0.22166389  0.92290636  0.64177602     0.05100
C1030       C  0.20154489  0.91313388  0.62217507    -0.09400
C1031       C  0.17920760  0.90789909  0.64233053     0.06000
C1032       C  0.17728926  0.91188855  0.68199534    -0.13700
Br1033     Br  0.17472533  0.97166078  0.72330761    -0.05800
Br1034     Br  0.21264386  0.87936671  0.84233055    -0.00200
Br1035     Br  0.25187559  0.93192900  0.61464579     0.00300
Br1036     Br  0.14737516  0.90359799  0.71024758    -0.04100
Br1037     Br  0.17964107  0.98042280  0.81695590     0.00400
Br1038     Br  0.21820689  0.87579214  0.74788875    -0.03400
Br1039     Br  0.24714269  0.93999506  0.70828128    -0.04300
Br1040     Br  0.15159456  0.89421301  0.61637358    -0.00300
C1041       C  0.19945756  0.92029896  0.12146300     0.01100
C1042       C  0.22329154  0.92544738  0.13604515     0.03900
C1043       C  0.22723638  0.92559302  0.17603124    -0.12100
C1044       C  0.20712752  0.92241693  0.20166186     0.23200
C1045       C  0.18299564  0.91892160  0.18732755    -0.12700
C1046       C  0.17924850  0.91720121  0.14735740     0.04600
C1047       C  0.21141276  0.92292167  0.24375639     0.27100
C1048       C  0.21869833  0.90158992  0.26529330    -0.13400
C1049       C  0.22104530  0.90176348  0.30569735     0.05100
C1050       C  0.21561649  0.92318539  0.32448299    -0.09400
C1051       C  0.21009451  0.94483085  0.30259346     0.06000
C1052       C  0.20814401  0.94473713  0.26224082    -0.13700
Br1053     Br  0.15518437  0.91642083  0.22271482    -0.05800
Br1054     Br  0.25049734  0.93414773  0.10181296    -0.00200
Br1055     Br  0.22982302  0.87233673  0.33539065     0.00300
Br1056     Br  0.20002312  0.97425842  0.23233276    -0.04100
Br1057     Br  0.14681536  0.90920865  0.12873471     0.00400
Br1058     Br  0.26029461  0.92996487  0.19608204    -0.03400
Br1059     Br  0.22422320  0.87198050  0.23944608    -0.04300
Br1060     Br  0.20432314  0.97447121  0.32835496    -0.00300
C1061       C  0.98449181  0.85035717  0.04754393     0.01100
C1062       C  0.00616825  0.84244221  0.06797084     0.03900
C1063       C  0.02918219  0.85274531  0.05857099    -0.12100
C1064       C  0.03061343  0.87075147  0.02846333     0.23200
C1065       C  0.00902815  0.87842793  0.00759053    -0.12700
C1066       C  0.98593586  0.86828781  0.01720318     0.04600
C1067       C  0.05500970  0.88124519  0.01848236     0.27100
C1068       C  0.06288134  0.90170056  0.03686992    -0.13400
C1069       C  0.08631536  0.91137125  0.02783713     0.05100
C1070       C  0.10194082  0.90042679  0.00065332    -0.09400
C1071       C  0.09410629  0.87976862  0.98262155     0.06000
C1072       C  0.07069077  0.87018364  0.99157392    -0.13700
Br1073     Br  0.01117795  0.90294549  0.96610933    -0.05800
Br1074     Br  0.00451905  0.81679555  0.10774468    -0.00200
Br1075     Br  0.09651650  0.94018184  0.05124557     0.00300
Br1076     Br  0.06006527  0.84169458  0.96746268    -0.04100
Br1077     Br  0.95612905  0.87963982  0.98983752     0.00400
Br1078     Br  0.05890150  0.84231616  0.08683311    -0.03400
Br1079     Br  0.04146372  0.91625380  0.07451122    -0.04300
Br1080     Br  0.11571461  0.86422666  0.94616875    -0.00300
C1081       C  0.61573967  0.60855409  0.54837500     0.01100
C1082       C  0.60060624  0.59886597  0.52018375     0.03900
C1083       C  0.57654464  0.60883609  0.51241164    -0.12100
C1084       C  0.56740057  0.62864621  0.53255703     0.23200
C1085       C  0.58249064  0.63846125  0.56058267    -0.12700
C1086       C  0.60652157  0.62834168  0.56867716     0.04600
C1087       C  0.54198098  0.63914190  0.52371584     0.27100
C1088       C  0.53850091  0.65609412  0.49227060    -0.13400
C1089       C  0.51422847  0.66419836  0.48123481     0.05100
C1090       C  0.49320905  0.65564112  0.50203530    -0.09400
C1091       C  0.49687252  0.63954971  0.53477255     0.06000
C1092       C  0.52115193  0.63121344  0.54532635    -0.13700
Br1093     Br  0.57012452  0.66587100  0.58757487    -0.05800
Br1094     Br  0.61220032  0.57095977  0.49359992    -0.00200
Br1095     Br  0.51001285  0.68762606  0.43828001     0.00300
Br1096     Br  0.52594660  0.60831705  0.58881077    -0.04100
Br1097     Br  0.62700796  0.64201171  0.60685302     0.00400
Br1098     Br  0.55578079  0.59512997  0.47445080    -0.03400
Br1099     Br  0.56723055  0.66801150  0.46429475    -0.04300
Br1100     Br  0.46864919  0.62768099  0.56418224    -0.00300
C1101       C  0.35821348  0.76006513  0.46543852     0.01100
C1102       C  0.33660669  0.75752996  0.48847209     0.03900
C1103       C  0.31685275  0.77490484  0.48489323    -0.12100
C1104       C  0.31836222  0.79460304  0.45752104     0.23200
C1105       C  0.33860616  0.79547081  0.43137186    -0.12700
C1106       C  0.35868422  0.77852657  0.43573608     0.04600
C1107       C  0.30161229  0.81639730  0.46097512     0.27100
C1108       C  0.27710847  0.81765143  0.44603097    -0.13400
C1109       C  0.26135811  0.83814995  0.45162122     0.05100
C1110       C  0.27052570  0.85800200  0.47057641    -0.09400
C1111       C  0.29570044  0.85719605  0.48297145     0.06000
C1112       C  0.31069836  0.83620918  0.47972195    -0.13700
Br1113     Br  0.33971062  0.82125691  0.39173643    -0.05800
Br1114     Br  0.33456524  0.73056506  0.52569702    -0.00200
Br1115     Br  0.22711835  0.83839958  0.43479618     0.00300
Br1116     Br  0.34382587  0.83446799  0.50185724    -0.04100
Br1117     Br  0.38805582  0.78249291  0.40396099     0.00400
Br1118     Br  0.28869924  0.77285973  0.51961712    -0.03400
Br1119     Br  0.26537330  0.79127254  0.41784916    -0.04300
Br1120     Br  0.31074330  0.88550028  0.50186638    -0.00300
C1121       C  0.34430907  0.49196693  0.52682692     0.01100
C1122       C  0.35107452  0.50473992  0.55968859     0.03900
C1123       C  0.36062076  0.52825147  0.55526444    -0.12100
C1124       C  0.36201981  0.54032454  0.51857738     0.23200
C1125       C  0.35394977  0.52852743  0.48607988    -0.12700
C1126       C  0.34552409  0.50451005  0.48985393     0.04600
C1127       C  0.37345369  0.56479288  0.51387114     0.27100
C1128       C  0.35896177  0.58622751  0.51784671    -0.13400
C1129       C  0.36986820  0.60912713  0.51224751     0.05100
C1130       C  0.39545018  0.61090402  0.50258052    -0.09400
C1131       C  0.40991949  0.58935322  0.49885520     0.06000
C1132       C  0.39905791  0.56654591  0.50495852    -0.13700
Br1133     Br  0.35535065  0.54536530  0.43587036    -0.05800
Br1134     Br  0.34614023  0.49135737  0.61182241    -0.00200
Br1135     Br  0.34918467  0.63809251  0.51454657     0.00300
Br1136     Br  0.41923552  0.53737622  0.50097544    -0.04100
Br1137     Br  0.33696080  0.48917067  0.44320015     0.00400
Br1138     Br  0.37291947  0.54387085  0.59952652    -0.03400
Br1139     Br  0.32394304  0.58413475  0.53002369    -0.04300
Br1140     Br  0.44480212  0.59082020  0.48506512    -0.00300
C1141       C  0.61066195  0.61587132  0.03927985     0.01100
C1142       C  0.59911535  0.61245420  0.00340470     0.03900
C1143       C  0.57503577  0.62248322  0.99533047    -0.12100
C1144       C  0.56222410  0.63601506  0.02285855     0.23200
C1145       C  0.57398950  0.64010394  0.05809185    -0.12700
C1146       C  0.59805238  0.63009086  0.06631651     0.04600
C1147       C  0.53571993  0.64431091  0.01583369     0.27100
C1148       C  0.52998130  0.66743654  0.99857914    -0.13400
C1149       C  0.50496567  0.67449290  0.99004242     0.05100
C1150       C  0.48547044  0.65860877  0.99902418    -0.09400
C1151       C  0.49115347  0.63575312  0.01734814     0.06000
C1152       C  0.51617087  0.62861993  0.02561219    -0.13700
Br1153     Br  0.55660699  0.65879308  0.09564583    -0.05800
Br1154     Br  0.61511702  0.59232195  0.96631820    -0.00200
Br1155     Br  0.49720836  0.70599911  0.96601001     0.00300
Br1156     Br  0.52391775  0.59714413  0.04992269    -0.04100
Br1157     Br  0.61374089  0.63609876  0.11475127     0.00400
Br1158     Br  0.55887587  0.61675148  0.94716805    -0.03400
Br1159     Br  0.55646192  0.68935350  0.98650494    -0.04300
Br1160     Br  0.46475587  0.61389620  0.03016241    -0.00300
C1161       C  0.25459855  0.86159617  0.96674490     0.01100
C1162       C  0.27118977  0.86098303  0.93489846     0.03900
C1163       C  0.28956650  0.84216056  0.93276156    -0.12100
C1164       C  0.29162130  0.82356421  0.96229290     0.23200
C1165       C  0.27435246  0.82362401  0.99321206    -0.12700
C1166       C  0.25577538  0.84223935  0.99509100     0.04600
C1167       C  0.31367254  0.80589022  0.96368271     0.27100
C1168       C  0.31171355  0.78188094  0.95249399    -0.13400
C1169       C  0.33217774  0.76497174  0.95719687     0.05100
C1170       C  0.35510496  0.77196291  0.97270469    -0.09400
C1171       C  0.35701069  0.79643597  0.98284252     0.06000
C1172       C  0.33654868  0.81300734  0.97847839    -0.13700
Br1173     Br  0.27775594  0.79938462  0.03510592    -0.05800
Br1174     Br  0.27066244  0.88728640  0.89605355    -0.00200
Br1175     Br  0.32795173  0.73186642  0.94533600     0.00300
Br1176     Br  0.33962646  0.84577420  0.99384656    -0.04100
Br1177     Br  0.23199713  0.84144170  0.03706441     0.00400
Br1178     Br  0.31359427  0.84307866  0.89116257    -0.03400
Br1179     Br  0.28065649  0.77223802  0.93120134    -0.04300
Br1180     Br  0.38772902  0.80834863  0.00275909    -0.00300
C1181       C  0.41751869  0.70609674  0.83333879     0.01100
C1182       C  0.40788430  0.68567651  0.81659048     0.03900
C1183       C  0.40772826  0.68426443  0.77624211    -0.12100
C1184       C  0.41687586  0.70337354  0.75239385     0.23200
C1185       C  0.42591039  0.72402720  0.76892188    -0.12700
C1186       C  0.42646837  0.72530170  0.80937651     0.04600
C1187       C  0.41560588  0.70228280  0.70984399     0.27100
C1188       C  0.43675085  0.69511626  0.68858317    -0.13400
C1189       C  0.43542753  0.69462630  0.64807291     0.05100
C1190       C  0.41249850  0.70003192  0.62890012    -0.09400
C1191       C  0.39130902  0.70701188  0.65053315     0.06000
C1192       C  0.39304678  0.70856009  0.69073871    -0.13700
Br1193     Br  0.43720733  0.75063547  0.73586893    -0.05800
Br1194     Br  0.39398180  0.65988401  0.84878286    -0.00200
Br1195     Br  0.46572017  0.68900518  0.61900411     0.00300
Br1196     Br  0.36464921  0.71983714  0.71995473    -0.04100
Br1197     Br  0.44066844  0.75274597  0.83184647     0.00400
Br1198     Br  0.39470680  0.65630047  0.75333505    -0.03400
Br1199     Br  0.46760404  0.68641236  0.71509868    -0.04300
Br1200     Br  0.35955295  0.71411882  0.62572884    -0.00300
C1201       C  0.41261873  0.70477853  0.13050261     0.01100
C1202       C  0.39155622  0.70837404  0.15425816     0.03900
C1203       C  0.39447306  0.70900979  0.19449034    -0.12100
C1204       C  0.41843070  0.70606817  0.21095310     0.23200
C1205       C  0.43941561  0.70206723  0.18734018    -0.12700
C1206       C  0.43654482  0.70139903  0.14715535     0.04600
C1207       C  0.42156265  0.70606187  0.25332936     0.27100
C1208       C  0.42517517  0.72779871  0.27127710    -0.13400
C1209       C  0.42913436  0.72754107  0.31143122     0.05100
C1210       C  0.42901314  0.70546288  0.33393222    -0.09400
C1211       C  0.42515609  0.68367494  0.31555216     0.06000
C1212       C  0.42170066  0.68405177  0.27537498    -0.13700
Br1213     Br  0.47210889  0.69766017  0.21033458    -0.05800
Br1214     Br  0.35864142  0.71151687  0.13182944    -0.00200
Br1215     Br  0.43615065  0.75740750  0.33459028     0.00300
Br1216     Br  0.41711062  0.65435560  0.25002269    -0.04100
Br1217     Br  0.46565594  0.69707812  0.11489775     0.00400
Br1218     Br  0.36575559  0.71375671  0.22727130    -0.03400
Br1219     Br  0.42496385  0.75785685  0.24042978    -0.04300
Br1220     Br  0.42313158  0.65308518  0.34480593    -0.00300
C1221       C  0.38523686  0.61668250  0.01029639     0.01100
C1222       C  0.37205935  0.60490566  0.98167549     0.03900
C1223       C  0.36387885  0.58122724  0.98891840    -0.12100
C1224       C  0.36696247  0.56947125  0.02565202     0.23200
C1225       C  0.37828346  0.58172956  0.05531352    -0.12700
C1226       C  0.38795149  0.60500726  0.04751332     0.04600
C1227       C  0.35868726  0.54403113  0.03207147     0.27100
C1228       C  0.33321254  0.53922893  0.03829832    -0.13400
C1229       C  0.32496348  0.51525185  0.03945699     0.05100
C1230       C  0.34219268  0.49584290  0.03514442    -0.09400
C1231       C  0.36773039  0.50060322  0.03002040     0.06000
C1232       C  0.37589056  0.52458283  0.02787214    -0.13700
Br1233     Br  0.38055240  0.56641951  0.10652900    -0.05800
Br1234     Br  0.36374787  0.62139731  0.93256271    -0.00200
Br1235     Br  0.29006313  0.50891023  0.04713172     0.00300
Br1236     Br  0.41059979  0.53091599  0.01805498    -0.04100
Br1237     Br  0.40600549  0.61998033  0.08735101     0.00400
Br1238     Br  0.34895297  0.56441039  0.94788951    -0.03400
Br1239     Br  0.30967836  0.56567365  0.04490469    -0.04300
Br1240     Br  0.39157406  0.47411746  0.02609964    -0.00300
C1241       C  0.50278785  0.90746770  0.42398598     0.01100
C1242       C  0.48136640  0.90018157  0.40471381     0.03900
C1243       C  0.47565142  0.87557015  0.40544689    -0.12100
C1244       C  0.49045781  0.85840007  0.42726162     0.23200
C1245       C  0.51317445  0.86537414  0.44306973    -0.12700
C1246       C  0.51968263  0.88982007  0.44021267     0.04600
C1247       C  0.47979662  0.83457643  0.43883736     0.27100
C1248       C  0.46156246  0.83346485  0.46818923    -0.13400
C1249       C  0.44874487  0.81208250  0.47654353     0.05100
C1250       C  0.45595785  0.79060237  0.45861004    -0.09400
C1251       C  0.47515192  0.79149822  0.43032044     0.06000
C1252       C  0.48635411  0.81362349  0.41957149    -0.13700
Br1253     Br  0.53410263  0.84198263  0.47179542    -0.05800
Br1254     Br  0.45807348  0.92394214  0.38162568    -0.00200
Br1255     Br  0.41997767  0.81330948  0.51043046     0.00300
Br1256     Br  0.51065283  0.81542778  0.37843477    -0.04100
Br1257     Br  0.55132468  0.89956234  0.45943031     0.00400
Br1258     Br  0.44626632  0.86541846  0.37957946    -0.03400
Br1259     Br  0.45448494  0.86133600  0.49772970    -0.04300
Br1260     Br  0.48741423  0.76244571  0.40766478    -0.00300
C1261       C  0.42650866  0.97193698  0.45262784     0.01100
C1262       C  0.41495681  0.95079108  0.46764887     0.03900
C1263       C  0.38889322  0.94889889  0.46598487    -0.12100
C1264       C  0.37402736  0.96796106  0.44908607     0.23200
C1265       C  0.38537649  0.98886778  0.43333960    -0.12700
C1266       C  0.41153899  0.99087314  0.43498217     0.04600
C1267       C  0.34645121  0.96567720  0.44849115     0.27100
C1268       C  0.33538456  0.95184524  0.42068898    -0.13400
C1269       C  0.31038976  0.94492155  0.42511359     0.05100
C1270       C  0.29592573  0.95297706  0.45639979    -0.09400
C1271       C  0.30629671  0.96937199  0.48130046     0.06000
C1272       C  0.33174484  0.97478859  0.47843219    -0.13700
Br1273     Br  0.36490424  0.01476789  0.40975989    -0.05800
Br1274     Br  0.43463098  0.92358677  0.48901439    -0.00200
Br1275     Br  0.29732907  0.92229211  0.39058618     0.00300
Br1276     Br  0.34707570  0.99272866  0.51767166    -0.04100
Br1277     Br  0.42637289  0.02012973  0.41454372     0.00400
Br1278     Br  0.37333909  0.92003790  0.48701351    -0.03400
Br1279     Br  0.35533568  0.94076977  0.37833293    -0.04300
Br1280     Br  0.28567840  0.98455955  0.51944148    -0.00300
C1281       C  0.46878723  0.91925076  0.93131559     0.01100
C1282       C  0.48308769  0.90606291  0.90488456     0.03900
C1283       C  0.47897306  0.88119535  0.90143552    -0.12100
C1284       C  0.46131281  0.86927050  0.92541392     0.23200
C1285       C  0.44650939  0.88262704  0.95071843    -0.12700
C1286       C  0.44969876  0.90750458  0.95287926     0.04600
C1287       C  0.45910003  0.84250837  0.92688436     0.27100
C1288       C  0.43865749  0.83211903  0.90931669    -0.13400
C1289       C  0.43278021  0.80789695  0.91892600     0.05100
C1290       C  0.44751859  0.79380393  0.94609262    -0.09400
C1291       C  0.46911887  0.80375977  0.96122818     0.06000
C1292       C  0.47480876  0.82801364  0.95176754    -0.13700
Br1293     Br  0.42254817  0.86651253  0.98423096    -0.05800
Br1294     Br  0.50958889  0.92132591  0.87582785    -0.00200
Br1295     Br  0.40274681  0.79531249  0.89812323     0.00300
Br1296     Br  0.50299785  0.84211795  0.97549872    -0.04100
Br1297     Br  0.42732933  0.92530584  0.98564600     0.00400
Br1298     Br  0.49789082  0.86317502  0.86480305    -0.03400
Br1299     Br  0.41744102  0.85193012  0.87473905    -0.04300
Br1300     Br  0.49069240  0.78437381  0.99584382    -0.00300
C1301       C  0.28477911  0.95478179  0.94782385     0.01100
C1302       C  0.30714696  0.94290472  0.96028767     0.03900
C1303       C  0.32983908  0.95449286  0.95542690    -0.12100
C1304       C  0.33048558  0.97758564  0.93647726     0.23200
C1305       C  0.30838571  0.98880777  0.92147819    -0.12700
C1306       C  0.28539856  0.97746635  0.92742023     0.04600
C1307       C  0.35475405  0.98948936  0.93284252     0.27100
C1308       C  0.36403027  0.00139022  0.96435201    -0.13400
C1309       C  0.38965333  0.00580576  0.96652162     0.05100
C1310       C  0.40602955  0.99785696  0.93752994    -0.09400
C1311       C  0.39615929  0.98866337  0.90378970     0.06000
C1312       C  0.37045415  0.98466542  0.90142256    -0.13700
Br1313     Br  0.30969049  0.01991814  0.89409536    -0.05800
Br1314     Br  0.30676482  0.91048537  0.98383047    -0.00200
Br1315     Br  0.40244893  0.02205894  0.00975595     0.00300
Br1316     Br  0.35694209  0.97038982  0.85682858    -0.04100
Br1317     Br  0.25480249  0.99355047  0.90970316     0.00400
Br1318     Br  0.35997012  0.93900518  0.97628092    -0.03400
Br1319     Br  0.34192603  0.00954459  0.00604467    -0.04300
Br1320     Br  0.41780780  0.97871112  0.86265080    -0.00300
C1321       C  0.50476862  0.01109809  0.59009179     0.01100
C1322       C  0.52478264  0.00425879  0.61496233     0.03900
C1323       C  0.52183096  0.00546744  0.65523892    -0.12100
C1324       C  0.49884571  0.01347528  0.67074976     0.23200
C1325       C  0.47921223  0.02131904  0.64570088    -0.12700
C1326       C  0.48232229  0.02042108  0.60543758     0.04600
C1327       C  0.49539389  0.01314504  0.71341434     0.27100
C1328       C  0.48564422  0.99271969  0.73349485    -0.13400
C1329       C  0.48480782  0.99124533  0.77424338     0.05100
C1330       C  0.49352545  0.01040374  0.79522302    -0.09400
C1331       C  0.50201247  0.03147788  0.77472941     0.06000
C1332       C  0.50329929  0.03260609  0.73408991    -0.13700
Br1333     Br  0.44767835  0.03208699  0.66663087    -0.05800
Br1334     Br  0.55573126  0.99205353  0.59392772    -0.00200
Br1335     Br  0.47350973  0.96207688  0.80074989     0.00300
Br1336     Br  0.51686375  0.06045299  0.70646443    -0.04100
Br1337     Br  0.45584292  0.03182405  0.57085515     0.00400
Br1338     Br  0.54877900  0.99494692  0.68952255    -0.03400
Br1339     Br  0.47459347  0.96619780  0.70490710    -0.04300
Br1340     Br  0.51131274  0.05944105  0.80168321    -0.00300
C1341       C  0.49825210  0.99476941  0.29402932     0.01100
C1342       C  0.51856570  0.98863502  0.27014759     0.03900
C1343       C  0.51588893  0.99052457  0.22979533    -0.12100
C1344       C  0.49290263  0.99853848  0.21341673     0.23200
C1345       C  0.47215743  0.00312206  0.23726849    -0.12700
C1346       C  0.47480825  0.00118302  0.27761258     0.04600
C1347       C  0.49056663  0.00246404  0.17108693     0.27100
C1348       C  0.49755000  0.02452363  0.15273800    -0.13400
C1349       C  0.49462445  0.02856865  0.11257068     0.05100
C1350       C  0.48534515  0.01019655  0.09044879    -0.09400
C1351       C  0.47878181  0.98783475  0.10916417     0.06000
C1352       C  0.48101890  0.98424860  0.14942156    -0.13700
Br1353     Br  0.44040464  0.01300703  0.21447932    -0.05800
Br1354     Br  0.55000076  0.97761820  0.29284806    -0.00200
Br1355     Br  0.50203474  0.05983951  0.08871786     0.00300
Br1356     Br  0.47104275  0.95430156  0.17536677    -0.04100
Br1357     Br  0.44679337  0.00914199  0.31016010     0.00400
Br1358     Br  0.54377449  0.98283292  0.19679684    -0.03400
Br1359     Br  0.51091970  0.04926417  0.18298759    -0.04300
Br1360     Br  0.46809911  0.96108387  0.08049857    -0.00300
C1361       C  0.51351601  0.35238852  0.48097899     0.01100
C1362       C  0.50425759  0.36445993  0.51314373     0.03900
C1363       C  0.47891321  0.37200157  0.51480019    -0.12100
C1364       C  0.46281860  0.36869036  0.48355181     0.23200
C1365       C  0.47208630  0.35716954  0.45101679    -0.12700
C1366       C  0.49709521  0.34841399  0.45016393     0.04600
C1367       C  0.43622063  0.37747960  0.48517309     0.27100
C1368       C  0.41745488  0.36168967  0.49825443    -0.13400
C1369       C  0.39300959  0.37071428  0.50481311     0.05100
C1370       C  0.38693371  0.39541849  0.49710336    -0.09400
C1371       C  0.40535092  0.41096372  0.48210263     0.06000
C1372       C  0.42994697  0.40204396  0.47630281    -0.13700
Br1373     Br  0.45047573  0.35388181  0.40734330    -0.05800
Br1374     Br  0.52654810  0.37219886  0.55399424    -0.00200
Br1375     Br  0.36803431  0.34953635  0.52649445     0.00300
Br1376     Br  0.45547468  0.42366708  0.45809769    -0.04100
Br1377     Br  0.50818138  0.32973993  0.40762569     0.00400
Br1378     Br  0.46612727  0.38711639  0.55993777    -0.03400
Br1379     Br  0.42556009  0.32787697  0.50881343    -0.04300
Br1380     Br  0.39733161  0.44490105  0.47275186    -0.00300
C1381       C  0.50950143  0.09469212  0.45903458     0.01100
C1382       C  0.49762450  0.11351623  0.43608736     0.03900
C1383       C  0.50360865  0.13772213  0.44069612    -0.12100
C1384       C  0.52132888  0.14332770  0.46842091     0.23200
C1385       C  0.53209328  0.12475222  0.49293520    -0.12700
C1386       C  0.52625489  0.10049372  0.48830089     0.04600
C1387       C  0.52971443  0.16854921  0.47049829     0.27100
C1388       C  0.54972069  0.17671497  0.44718420    -0.13400
C1389       C  0.55924838  0.19982774  0.45139650     0.05100
C1390       C  0.54833472  0.21521468  0.47829056    -0.09400
C1391       C  0.52744095  0.20736134  0.50026164     0.06000
C1392       C  0.51836179  0.18403842  0.49661244    -0.13700
Br1393     Br  0.55604680  0.13257513  0.53139558    -0.05800
Br1394     Br  0.47327528  0.10618145  0.39788982    -0.00200
Br1395     Br  0.58867563  0.20932346  0.42281213     0.00300
Br1396     Br  0.49075076  0.17287744  0.52805267    -0.04100
Br1397     Br  0.54326738  0.07529641  0.51972806     0.00400
Br1398     Br  0.48849522  0.16327096  0.40783214    -0.03400
Br1399     Br  0.56454100  0.15573599  0.41027944    -0.04300
Br1400     Br  0.51098147  0.22854016  0.53542014    -0.00300
C1401       C  0.61016752  0.39274036  0.50938784     0.01100
C1402       C  0.60170483  0.41419268  0.48850534     0.03900
C1403       C  0.61078241  0.43681226  0.49730712    -0.12100
C1404       C  0.62741475  0.43868932  0.52821767     0.23200
C1405       C  0.63543284  0.41758521  0.54982984    -0.12700
C1406       C  0.62743067  0.39466127  0.53985308     0.04600
C1407       C  0.63700465  0.46289935  0.53666738     0.27100
C1408       C  0.66010774  0.47035577  0.52128033    -0.13400
C1409       C  0.66854229  0.49374535  0.52704899     0.05100
C1410       C  0.65358308  0.51024466  0.54742337    -0.09400
C1411       C  0.63023255  0.50280545  0.56236911     0.06000
C1412       C  0.62223449  0.47914666  0.55757072    -0.13700
Br1413     Br  0.65779587  0.42024335  0.59273988    -0.05800
Br1414     Br  0.57698882  0.41332664  0.44810292    -0.00200
Br1415     Br  0.70127305  0.50251396  0.50860955     0.00300
Br1416     Br  0.59091635  0.46883844  0.57956942    -0.04100
Br1417     Br  0.64223870  0.36601558  0.56554256     0.00400
Br1418     Br  0.60099171  0.46548769  0.46616106    -0.03400
Br1419     Br  0.68009931  0.44840419  0.49184576    -0.04300
Br1420     Br  0.60834960  0.52535780  0.58763638    -0.00300
C1421       C  0.51332023  0.35772435  0.99063215     0.01100
C1422       C  0.50818190  0.37875171  0.01068593     0.03900
C1423       C  0.48332477  0.38748923  0.01481306    -0.12100
C1424       C  0.46337879  0.37509272  0.99939437     0.23200
C1425       C  0.46849367  0.35374013  0.98016300    -0.12700
C1426       C  0.49336834  0.34533574  0.97522271     0.04600
C1427       C  0.43695938  0.38359255  0.00557229     0.27100
C1428       C  0.42383917  0.37492777  0.03845600    -0.13400
C1429       C  0.39892464  0.38272375  0.04482359     0.05100
C1430       C  0.38666357  0.39949311  0.01821017    -0.09400
C1431       C  0.39983094  0.40774798  0.98466411     0.06000
C1432       C  0.42496846  0.40016526  0.97887203    -0.13700
Br1433     Br  0.44125411  0.33554265  0.96189548    -0.05800
Br1434     Br  0.53531382  0.39589879  0.03167669    -0.00200
Br1435     Br  0.38168401  0.36939850  0.08983928     0.00300
Br1436     Br  0.44362784  0.41343697  0.93539005    -0.04100
Br1437     Br  0.50014845  0.31641265  0.94816906     0.00400
Br1438     Br  0.47638652  0.41625295  0.04218641    -0.03400
Br1439     Br  0.44062015  0.35277117  0.07549161    -0.04300
Br1440     Br  0.38423387  0.43031399  0.94708724    -0.00300
C1441       C  0.51342568  0.10178691  0.95777657     0.01100
C1442       C  0.49535803  0.11679205  0.97512580     0.03900
C1443       C  0.50070574  0.14098904  0.98113641    -0.12100
C1444       C  0.52419147  0.14998419  0.97055930     0.23200
C1445       C  0.54230955  0.13500888  0.95368866    -0.12700
C1446       C  0.53702537  0.11098939  0.94740520     0.04600
C1447       C  0.53094360  0.17458981  0.97981188     0.27100
C1448       C  0.52531336  0.19437338  0.95393255    -0.13400
C1449       C  0.53461684  0.21722270  0.96050774     0.05100
C1450       C  0.55003790  0.22023496  0.99304370    -0.09400
C1451       C  0.55509876  0.20008988  0.01944861     0.06000
C1452       C  0.54519030  0.17757166  0.01296745    -0.13700
Br1453     Br  0.57463535  0.14748479  0.93964579    -0.05800
Br1454     Br  0.46312850  0.10465260  0.98965462    -0.00200
Br1455     Br  0.52547677  0.24396389  0.92461160     0.00300
Br1456     Br  0.55191168  0.15010378  0.04874053    -0.04100
Br1457     Br  0.56292537  0.09060285  0.92605772     0.00400
Br1458     Br  0.47600360  0.16206051  0.00355387    -0.03400
Br1459     Br  0.50516122  0.18979111  0.90901431    -0.04300
Br1460     Br  0.57724599  0.20168600  0.06326811    -0.00300
C1461       C  0.57480343  0.29808067  0.84459619     0.01100
C1462       C  0.55296995  0.30205626  0.82211258     0.03900
C1463       C  0.55450977  0.30344930  0.78154726    -0.12100
C1464       C  0.57773652  0.30019142  0.76319679     0.23200
C1465       C  0.59934134  0.29483684  0.78543432    -0.12700
C1466       C  0.59794894  0.29386181  0.82606376     0.04600
C1467       C  0.57921796  0.30134315  0.72041094     0.27100
C1468       C  0.57728276  0.28005636  0.70071165    -0.13400
C1469       C  0.57869776  0.28082693  0.66017497     0.05100
C1470       C  0.58193031  0.30313853  0.63886749    -0.09400
C1471       C  0.58358024  0.32453940  0.65886819     0.06000
C1472       C  0.58235374  0.32356740  0.69955293    -0.13700
Br1473     Br  0.63094395  0.28945549  0.75992147    -0.05800
Br1474     Br  0.52070643  0.30467248  0.84668292    -0.00200
Br1475     Br  0.57529928  0.25096362  0.63465994     0.00300
Br1476     Br  0.58547878  0.35258289  0.72707644    -0.04100
Br1477     Br  0.62816536  0.28828984  0.85582786     0.00400
Br1478     Br  0.52488330  0.31018248  0.75082561    -0.03400
Br1479     Br  0.57269166  0.24974888  0.72977178    -0.04300
Br1480     Br  0.58896431  0.35509288  0.63124197    -0.00300
C1481       C  0.59528713  0.31713952  0.13716298     0.01100
C1482       C  0.61654907  0.30900040  0.15888497     0.03900
C1483       C  0.61522586  0.30615767  0.19948156    -0.12100
C1484       C  0.59342702  0.31346344  0.21904590     0.23200
C1485       C  0.57339712  0.32451195  0.19785307    -0.12700
C1486       C  0.57381061  0.32549161  0.15708945     0.04600
C1487       C  0.59156111  0.30953437  0.26184463     0.27100
C1488       C  0.57699427  0.29078438  0.27842908    -0.13400
C1489       C  0.57488719  0.28742038  0.31894354     0.05100
C1490       C  0.58758254  0.30255266  0.34292938    -0.09400
C1491       C  0.60296532  0.32056869  0.32640486     0.06000
C1492       C  0.60433829  0.32454868  0.28604931    -0.13700
Br1493     Br  0.54538261  0.33830452  0.22507838    -0.05800
Br1494     Br  0.64809944  0.30297979  0.13355645    -0.00200
Br1495     Br  0.55375607  0.26292690  0.34173633     0.00300
Br1496     Br  0.62240481  0.35155783  0.26394290    -0.04100
Br1497     Br  0.54395681  0.33658564  0.12962537     0.00400
Br1498     Br  0.64310555  0.29163092  0.22834942    -0.03400
Br1499     Br  0.55906423  0.27036300  0.24565133    -0.04300
Br1500     Br  0.62263134  0.33951615  0.35932543    -0.00300
C1501       C  0.60983118  0.39939765  0.99231575     0.01100
C1502       C  0.62703530  0.40248398  0.02256867     0.03900
C1503       C  0.63397176  0.42580546  0.03135034    -0.12100
C1504       C  0.62548415  0.44600526  0.00825180     0.23200
C1505       C  0.60948403  0.44307081  0.97699475    -0.12700
C1506       C  0.60089215  0.42008237  0.96980079     0.04600
C1507       C  0.63328095  0.47051993  0.01662186     0.27100
C1508       C  0.61659916  0.48621372  0.03523618    -0.13400
C1509       C  0.62339132  0.50995624  0.04116692     0.05100
C1510       C  0.64738011  0.51767077  0.03032893    -0.09400
C1511       C  0.66398830  0.50203005  0.01130668     0.06000
C1512       C  0.65683884  0.47853059  0.00422551    -0.13700
Br1513     Br  0.59931846  0.47092410  0.94408335    -0.05800
Br1514     Br  0.64271889  0.37512554  0.05095188    -0.00200
Br1515     Br  0.59934740  0.53234482  0.06219771     0.00300
Br1516     Br  0.67941568  0.45707511  0.97807905    -0.04100
Br1517     Br  0.57560249  0.41813625  0.93046131     0.00400
Br1518     Br  0.65489319  0.43031682  0.07545854    -0.03400
Br1519     Br  0.58465823  0.47492130  0.05331488    -0.04300
Br1520     Br  0.69697136  0.51223634  0.99642095    -0.00300
C1521       C  0.89628278  0.90068530  0.53862695     0.01100
C1522       C  0.90722307  0.92095627  0.55430465     0.03900
C1523       C  0.89655270  0.94421194  0.54704778    -0.12100
C1524       C  0.87610256  0.94776741  0.52190248     0.23200
C1525       C  0.86550829  0.92789858  0.50536921    -0.12700
C1526       C  0.87518976  0.90435810  0.51423480     0.04600
C1527       C  0.86671680  0.97267012  0.51137688     0.27100
C1528       C  0.84652291  0.98282333  0.53147599    -0.13400
C1529       C  0.83824914  0.00676152  0.52216241     0.05100
C1530       C  0.85112780  0.02128638  0.49411728    -0.09400
C1531       C  0.87185031  0.01091173  0.47454103     0.06000
C1532       C  0.87885693  0.98647537  0.48217390    -0.13700
Br1533     Br  0.83747220  0.93316104  0.47082809    -0.05800
Br1534     Br  0.93782849  0.91766129  0.58381013    -0.00200
Br1535     Br  0.80836869  0.01856298  0.54678666     0.00300
Br1536     Br  0.90514922  0.97152574  0.45255689    -0.04100
Br1537     Br  0.85835344  0.87740215  0.49434454     0.00400
Br1538     Br  0.90958641  0.97142050  0.57206970    -0.03400
Br1539     Br  0.83028513  0.96370756  0.57192881    -0.04300
Br1540     Br  0.89238056  0.03003311  0.43931689    -0.00300
C1541       C  0.70812217  0.06592407  0.47317869     0.01100
C1542       C  0.70473870  0.04626312  0.44974297     0.03900
C1543       C  0.68050387  0.03799573  0.44330942    -0.12100
C1544       C  0.65962762  0.04890150  0.46101297     0.23200
C1545       C  0.66302360  0.06799586  0.48530808    -0.12700
C1546       C  0.68697845  0.07697317  0.49036660     0.04600
C1547       C  0.63384965  0.04206945  0.45138038     0.27100
C1548       C  0.61981331  0.05695080  0.42474896    -0.13400
C1549       C  0.59454047  0.05244272  0.41846605     0.05100
C1550       C  0.58373874  0.03152033  0.43582531    -0.09400
C1551       C  0.59830802  0.01581294  0.46069119     0.06000
C1552       C  0.62281459  0.02183713  0.47011760    -0.13700
Br1553     Br  0.63461737  0.08173015  0.51184591    -0.05800
Br1554     Br  0.73321347  0.02988466  0.42786267    -0.00200
Br1555     Br  0.57443818  0.07665089  0.38947961     0.00300
Br1556     Br  0.64052473  0.00350567  0.51074947    -0.04100
Br1557     Br  0.69033288  0.10553310  0.51900932     0.00400
Br1558     Br  0.67570529  0.01166767  0.41034744    -0.03400
Br1559     Br  0.63506822  0.08426358  0.39806136    -0.04300
Br1560     Br  0.58520803  0.98561011  0.48071048    -0.00300
C1561       C  0.74648640  0.15697851  0.48139829     0.01100
C1562       C  0.73185739  0.16218419  0.44786518     0.03900
C1563       C  0.71512577  0.18237340  0.44590299    -0.12100
C1564       C  0.71284452  0.19738919  0.47726728     0.23200
C1565       C  0.72955561  0.19394130  0.50846775    -0.12700
C1566       C  0.74620334  0.17374653  0.51071458     0.04600
C1567       C  0.69003731  0.21322001  0.48115945     0.27100
C1568       C  0.68950415  0.23784021  0.46858193    -0.13400
C1569       C  0.66773041  0.25242720  0.47388066     0.05100
C1570       C  0.64627159  0.24230660  0.49139532    -0.09400
C1571       C  0.64685944  0.21744091  0.50322939     0.06000
C1572       C  0.66861584  0.20315040  0.49837396    -0.13700
Br1573     Br  0.72839985  0.21620144  0.54925995    -0.05800
Br1574     Br  0.73228899  0.14040151  0.40634967    -0.00200
Br1575     Br  0.66790177  0.28642844  0.45922314     0.00300
Br1576     Br  0.66909529  0.16943151  0.51553880    -0.04100
Br1577     Br  0.76795407  0.16864213  0.55489582     0.00400
Br1578     Br  0.69380005  0.18863915  0.40156357    -0.03400
Br1579     Br  0.71872499  0.25136605  0.44436034    -0.04300
Br1580     Br  0.61758705  0.20212949  0.52499380    -0.00300
C1581       C  0.89759320  0.11457017  0.49655989     0.01100
C1582       C  0.90746407  0.13226092  0.47014333     0.03900
C1583       C  0.93230715  0.13958649  0.47352528    -0.12100
C1584       C  0.94783068  0.12930143  0.50312677     0.23200
C1585       C  0.93805908  0.11183753  0.52986268    -0.12700
C1586       C  0.91299349  0.10467576  0.52688282     0.04600
C1587       C  0.97421548  0.13732542  0.50629937     0.27100
C1588       C  0.99316517  0.12837901  0.48195674    -0.13400
C1589       C  0.01785893  0.13655758  0.48423555     0.05100
C1590       C  0.02396947  0.15343822  0.51149051    -0.09400
C1591       C  0.00481361  0.16274536  0.53521694     0.06000
C1592       C  0.98010391  0.15491624  0.53234201    -0.13700
Br1593     Br  0.95950158  0.09705941  0.56960801    -0.05800
Br1594     Br  0.88679556  0.14715547  0.42937665    -0.00200
Br1595     Br  0.04338661  0.12394863  0.45081981     0.00300
Br1596     Br  0.95401150  0.16873550  0.56350941    -0.04100
Br1597     Br  0.90032261  0.08036829  0.56314512     0.00400
Br1598     Br  0.94535824  0.16369432  0.43715904    -0.03400
Br1599     Br  0.98516099  0.10475923  0.44553840    -0.04300
Br1600     Br  0.01213983  0.18707979  0.57090906    -0.00300
C1601       C  0.83982564  0.00916830  0.99287322     0.01100
C1602       C  0.85911971  0.99728397  0.97200123     0.03900
C1603       C  0.86570000  0.97273659  0.98099376    -0.12100
C1604       C  0.85391290  0.95971629  0.01156238     0.23200
C1605       C  0.83425090  0.97096162  0.03156911    -0.12700
C1606       C  0.82694061  0.99531012  0.02197411     0.04600
C1607       C  0.86363730  0.93485042  0.02410922     0.27100
C1608       C  0.85340845  0.91402656  0.00964889    -0.13400
C1609       C  0.86420285  0.89084622  0.01920159     0.05100
C1610       C  0.88568239  0.88825686  0.04285178    -0.09400
C1611       C  0.89562240  0.90928762  0.05780024     0.06000
C1612       C  0.88434261  0.93225075  0.04904064    -0.13700
Br1613     Br  0.81724069  0.95263982  0.07211555    -0.05800
Br1614     Br  0.87793201  0.01425668  0.93186045    -0.00200
Br1615     Br  0.84859306  0.86262741  0.00150140     0.00300
Br1616     Br  0.89708905  0.96049692  0.07148186    -0.04100
Br1617     Br  0.79793407  0.00849797  0.04727594     0.00400
Br1618     Br  0.89112149  0.95650707  0.95139164    -0.03400
Br1619     Br  0.82431582  0.91738122  0.97710158    -0.04300
Br1620     Br  0.92565698  0.90737950  0.08876036    -0.00300
C1621       C  0.70152963  0.05128015  0.97627376     0.01100
C1622       C  0.68474087  0.06492951  0.95182690     0.03900
C1623       C  0.66027097  0.05714388  0.94725370    -0.12100
C1624       C  0.65258523  0.03565205  0.96675277     0.23200
C1625       C  0.66963927  0.02145685  0.98964353    -0.12700
C1626       C  0.69412163  0.02920477  0.99433379     0.04600
C1627       C  0.62601670  0.02918229  0.96556033     0.27100
C1628       C  0.60909068  0.03898590  0.99203464    -0.13400
C1629       C  0.58331121  0.03607812  0.98762888     0.05100
C1630       C  0.57445214  0.02328587  0.95646917    -0.09400
C1631       C  0.59167147  0.01126774  0.93272578     0.06000
C1632       C  0.61743661  0.01437430  0.93707890    -0.13700
Br1633     Br  0.65895293  0.99194604  0.01579697    -0.05800
Br1634     Br  0.69447504  0.09515734  0.92654500    -0.00200
Br1635     Br  0.56058223  0.05143468  0.02277250     0.00300
Br1636     Br  0.64101055  0.99899388  0.90346549    -0.04100
Br1637     Br  0.71758955  0.00936142  0.02507868     0.00400
Br1638     Br  0.63677967  0.07654015  0.91582038    -0.03400
Br1639     Br  0.62141744  0.05734007  0.03333339    -0.04300
Br1640     Br  0.57990076  0.99024114  0.89465839    -0.00300
C1641       C  0.73060404  0.14368350  0.98298828     0.01100
C1642       C  0.70598131  0.14482388  0.99864683     0.03900
C1643       C  0.69129283  0.16639633  0.99544619    -0.12100
C1644       C  0.70034578  0.18732835  0.97591629     0.23200
C1645       C  0.72441640  0.18616066  0.95892008    -0.12700
C1646       C  0.73955344  0.16459661  0.96273522     0.04600
C1647       C  0.68409715  0.21015526  0.97440333     0.27100
C1648       C  0.66284712  0.21220906  0.95029004    -0.13400
C1649       C  0.64397348  0.23016065  0.95579811     0.05100
C1650       C  0.64581635  0.24620172  0.98605916    -0.09400
C1651       C  0.66792296  0.24521005  0.00830556     0.06000
C1652       C  0.68716319  0.22774589  0.00183128    -0.13700
Br1653     Br  0.73657477  0.21418334  0.93032932    -0.05800
Br1654     Br  0.69112456  0.11669755  0.02399355    -0.00200
Br1655     Br  0.61449949  0.23095639  0.92386415     0.00300
Br1656     Br  0.71762592  0.22755771  0.03120104    -0.04100
Br1657     Br  0.77305363  0.16435908  0.94220970     0.00400
Br1658     Br  0.65835172  0.16736775  0.01859467    -0.03400
Br1659     Br  0.65896373  0.18926361  0.91107459    -0.04300
Br1660     Br  0.67173965  0.26761251  0.04820166    -0.00300
C1661       C  0.80361577  0.09043024  0.63298435     0.01100
C1662       C  0.78639434  0.07356032  0.64795636     0.03900
C1663       C  0.78102522  0.07182184  0.68774649    -0.12100
C1664       C  0.79334711  0.08650335  0.71300126     0.23200
C1665       C  0.81154036  0.10245105  0.69835356    -0.12700
C1666       C  0.81620551  0.10485263  0.65827263     0.04600
C1667       C  0.78931592  0.08296960  0.75535687     0.27100
C1668       C  0.77242026  0.09785902  0.77516785    -0.13400
C1669       C  0.76995259  0.09487422  0.81582625     0.05100
C1670       C  0.78340617  0.07583906  0.83656644    -0.09400
C1671       C  0.79778473  0.05916606  0.81510393     0.06000
C1672       C  0.80210451  0.06384377  0.77550665    -0.13700
Br1673     Br  0.83075390  0.12012392  0.73353851    -0.05800
Br1674     Br  0.77020424  0.05263448  0.61391142    -0.00200
Br1675     Br  0.74830049  0.11732777  0.84176424     0.00300
Br1676     Br  0.82652996  0.04451997  0.74866799    -0.04100
Br1677     Br  0.83924900  0.12829203  0.63777005     0.00400
Br1678     Br  0.75718812  0.04892734  0.70800695    -0.03400
Br1679     Br  0.75310935  0.12258932  0.74628845    -0.04300
Br1680     Br  0.81039197  0.02851365  0.83778890    -0.00300
C1681       C  0.80340807  0.08890570  0.13184322     0.01100
C1682       C  0.79724074  0.11068580  0.14957973     0.03900
C1683       C  0.79472716  0.11095612  0.18999968    -0.12100
C1684       C  0.79892781  0.08964545  0.21326757     0.23200
C1685       C  0.80631343  0.06815576  0.19601516    -0.12700
C1686       C  0.80871509  0.06777219  0.15546475     0.04600
C1687       C  0.79759300  0.09036558  0.25608574     0.27100
C1688       C  0.81864038  0.09727976  0.27639978    -0.13400
C1689       C  0.81781049  0.09806910  0.31680954     0.05100
C1690       C  0.79625367  0.09093302  0.33753401    -0.09400
C1691       C  0.77490160  0.08454851  0.31719088     0.06000
C1692       C  0.77554471  0.08441253  0.27645142    -0.13700
Br1693     Br  0.81261172  0.03914794  0.22828829    -0.05800
Br1694     Br  0.79310737  0.14059556  0.11866714    -0.00200
Br1695     Br  0.84616020  0.10977996  0.34367411     0.00300
Br1696     Br  0.74656765  0.07542134  0.24844911    -0.04100
Br1697     Br  0.81837168  0.03797579  0.13281085     0.00400
Br1698     Br  0.78514742  0.14049639  0.21378172    -0.03400
Br1699     Br  0.84899107  0.10491747  0.24872811    -0.04300
Br1700     Br  0.74531099  0.07480291  0.34497482    -0.00300
C1701       C  0.88736345  0.10503862  0.98730534     0.01100
C1702       C  0.89292504  0.12783901  0.96978890     0.03900
C1703       C  0.91670890  0.13744417  0.97446086    -0.12100
C1704       C  0.93546795  0.12373657  0.99484768     0.23200
C1705       C  0.93022298  0.10050125  0.01082328    -0.12700
C1706       C  0.90617016  0.09127006  0.00734889     0.04600
C1707       C  0.96052686  0.13390827  0.00039349     0.27100
C1708       C  0.98028498  0.12900853  0.97471682    -0.13400
C1709       C  0.00425883  0.13780088  0.98114380     0.05100
C1710       C  0.00837537  0.15239514  0.01250305    -0.09400
C1711       C  0.98844432  0.15728784  0.03817502     0.06000
C1712       C  0.96472508  0.14792300  0.03221529    -0.13700
Br1713     Br  0.95616229  0.08131241  0.03725681    -0.05800
Br1714     Br  0.86811654  0.14566802  0.93862343    -0.00200
Br1715     Br  0.03180207  0.12811686  0.94879910     0.00300
Br1716     Br  0.93773248  0.15424825  0.06768777    -0.04100
Br1717     Br  0.89920860  0.05923048  0.02822523     0.00400
Br1718     Br  0.92362385  0.16947554  0.95340876    -0.03400
Br1719     Br  0.97437494  0.11011787  0.93080828    -0.04300
Br1720     Br  0.99303788  0.17746740  0.08113088    -0.00300
loop_ 
_geom_bond_atom_site_label_1 
_geom_bond_atom_site_label_2 
_geom_bond_distance 
_geom_bond_site_symmetry_2 
_ccdc_geom_bond_type 
O1           Ni7   1.913       .  S
O1           C22   1.268       .  A
O2          Ni25   1.928       .  S
O2           C11   1.271       .  A
O3           Ni7   1.884       .  S
O3          Ni25   1.902   1_554  S
O3          Ni19   1.921       .  S
O3           H26   0.964       .  S
C4           O21   1.284   1_556  A
C4           O13   1.277       .  A
C4         C1701   1.479       .  S
O5          Ni24   1.909       .  S
O5           C11   1.264       .  A
O6          Ni24   1.915       .  S
O6            C8   1.267       .  A
Ni7          O10   1.921       .  S
Ni7          O12   1.903       .  S
C8           O18   1.276   1_556  A
C8         C1601   1.515       .  S
O9          Ni25   1.918       .  S
O9           C15   1.278       .  A
O10          C15   1.279   1_554  A
C11        C1670   1.502       .  S
O12          C14   1.267   1_554  A
O13         Ni24   1.923       .  S
C14          O20   1.284       .  A
C14        C1641   1.513       .  S
C15        C1621   1.474       .  S
H16          O17   0.966       .  S
O17         Ni25   1.919       .  S
O17         Ni19   1.910   1_556  S
O17         Ni24   1.902       .  S
O18         Ni19   1.955       .  S
Ni19         O23   1.936       .  S
Ni19         O21   1.935       .  S
O20         Ni25   1.967       .  S
C22          O23   1.275       .  A
C22        C1681   1.490       .  S
O27         Ni33   1.905       .  S
O27          C48   1.264       .  A
O28         Ni51   1.923       .  S
O28          C37   1.271       .  A
O29         Ni33   1.897       .  S
O29         Ni51   1.900       .  S
O29         Ni45   1.937       .  S
O29          H52   0.942       .  S
C30          O47   1.286       .  A
C30          O39   1.279       .  A
C30        C1581   1.498       .  S
O31         Ni50   1.919       .  S
O31          C37   1.268       .  A
O32         Ni50   1.900       .  S
O32          C34   1.265       .  A
Ni33         O36   1.912       .  S
Ni33         O38   1.907       .  S
C34          O44   1.273       .  A
C34        C1530   1.494       .  S
O35         Ni51   1.951       .  S
O35          C41   1.286       .  A
O36          C41   1.276       .  A
C37        C1690   1.481       .  S
O38          C40   1.268       .  A
O39         Ni50   1.928       .  S
C40          O46   1.274       .  A
C40        C1561   1.491       .  S
C41        C1541   1.489       .  S
H42          O43   0.967       .  S
O43         Ni51   1.931       .  S
O43         Ni45   1.910       .  S
O43         Ni50   1.900       .  S
O44         Ni45   1.938       .  S
Ni45         O49   1.934       .  S
Ni45         O47   1.947       .  S
O46         Ni51   1.939       .  S
C48          O49   1.273       .  A
C48        C1661   1.476       .  S
O53         Ni59   1.921       .  S
O53          C74   1.269       .  A
O54         Ni77   1.920       .  S
O54          C63   1.274       .  A
O55         Ni59   1.900       .  S
O55         Ni77   1.907   1_556  S
O55         Ni71   1.920       .  S
O55          H78   0.966       .  S
C56          O73   1.281       .  A
C56          O65   1.276   1_556  A
C56        C1450   1.489       .  S
O57         Ni76   1.922       .  S
O57          C63   1.274       .  A
O58         Ni76   1.934       .  S
O58          C60   1.275   1_554  A
Ni59         O62   1.922       .  S
Ni59         O64   1.913       .  S
C60          O70   1.275       .  A
C60        C1650   1.507       .  S
O61         Ni77   1.916       .  S
O61          C67   1.277   1_554  A
O62          C67   1.276       .  A
C63        C1481   1.494       .  S
O64          C66   1.269       .  A
O65         Ni76   1.912       .  S
C66          O72   1.276   1_556  A
C66        C1421   1.486       .  S
C67        C1501   1.491       .  S
H68          O69   0.966       .  S
O69         Ni77   1.908       .  S
O69         Ni71   1.890   1_554  S
O69         Ni76   1.883       .  S
O70         Ni71   1.941       .  S
Ni71         O75   1.914       .  S
Ni71         O73   1.927       .  S
O72         Ni77   1.944       .  S
C74          O75   1.270       .  A
C74        C1461   1.480       .  S
O79         Ni85   1.910       .  S
O79         C100   1.265       .  A
O80        Ni103   1.924       .  S
O80          C89   1.273       .  A
O81         Ni85   1.905       .  S
O81        Ni103   1.912       .  S
O81         Ni97   1.938       .  S
O81         H104   0.966       .  S
C82          O99   1.288       .  A
C82          O91   1.280       .  A
C82        C1390   1.487       .  S
O83        Ni102   1.913       .  S
O83          C89   1.266       .  A
O84        Ni102   1.899       .  S
O84          C86   1.265       .  A
Ni85         O88   1.919       .  S
Ni85         O90   1.915       .  S
C86          O96   1.273       .  A
C86        C1570   1.491       .  S
O87        Ni103   1.945       .  S
O87          C93   1.282       .  A
O88          C93   1.275       .  A
C89        C1470   1.485       .  S
O90          C92   1.269       .  A
O91        Ni102   1.919       .  S
C92          O98   1.274       .  A
C92        C1361   1.492       .  S
C93        C1401   1.501       .  S
H94          O95   0.966       .  S
O95        Ni103   1.916       .  S
O95         Ni97   1.892       .  S
O95        Ni102   1.884       .  S
O96         Ni97   1.942       .  S
Ni97        O101   1.925       .  S
Ni97         O99   1.945       .  S
O98        Ni103   1.936       .  S
C100        O101   1.270       .  A
C100       C1490   1.474       .  S
O105       Ni111   1.906   1_545  S
O105        C126   1.262       .  A
O106       Ni129   1.925       .  S
O106        C115   1.273   1_565  A
O107       Ni111   1.885   1_556  S
O107       Ni129   1.899       .  S
O107       Ni123   1.920   1_565  S
O107        H130   0.966       .  S
C108        O125   1.282       .  A
C108        O117   1.278       .  A
C108       C1441   1.476       .  S
O109       Ni128   1.915       .  S
O109        C115   1.268       .  A
O110       Ni128   1.905       .  S
O110        C112   1.268       .  A
Ni111       O114   1.905   1_554  S
Ni111       O116   1.903   1_554  S
C112        O122   1.267       .  A
C112       C1630   1.479       .  S
O113       Ni129   1.953       .  S
O113        C119   1.287       .  A
O114        C119   1.276       .  A
C115       C1330   1.489       .  S
O116        C118   1.267       .  A
O117       Ni128   1.914       .  S
C118        O124   1.269   1_565  A
C118       C1310   1.476       .  S
C119       C1281   1.489       .  S
H120        O121   0.967       .  S
O121       Ni129   1.921   1_545  S
O121       Ni123   1.899       .  S
O121       Ni128   1.888       .  S
O122       Ni123   1.918       .  S
Ni123       O127   1.918   1_556  S
Ni123       O125   1.928       .  S
O124       Ni129   1.922   1_545  S
C126        O127   1.268       .  A
C126       C1350   1.481       .  S
O131       Ni137   1.925       .  S
O131        C152   1.269   1_565  A
O132       Ni155   1.903       .  S
O132        C141   1.265       .  A
O133       Ni137   1.913       .  S
O133       Ni155   1.916       .  S
O133       Ni149   1.921   1_565  S
O133        H156   0.965       .  S
C134        O151   1.277       .  A
C134        O143   1.275       .  A
C134       C1381   1.484       .  S
O135       Ni154   1.923       .  S
O135        C141   1.268   1_545  A
O136       Ni154   1.899       .  S
O136        C138   1.266       .  A
Ni137       O140   1.920       .  S
Ni137       O142   1.906       .  S
C138        O148   1.273       .  A
C138       C1550   1.481       .  S
O139       Ni155   1.921       .  S
O139        C145   1.273       .  A
O140        C145   1.274       .  A
C141       C1341   1.468       .  S
O142        C144   1.269       .  A
O143       Ni154   1.923       .  S
C144        O150   1.272       .  A
C144       C1261   1.488       .  S
C145       C1241   1.479       .  S
H146        O147   0.965       .  S
O147       Ni155   1.912   1_545  S
O147       Ni149   1.908       .  S
O147       Ni154   1.910       .  S
O148       Ni149   1.931       .  S
Ni149       O153   1.916       .  S
Ni149       O151   1.922       .  S
O150       Ni155   1.931       .  S
C152        O153   1.267       .  A
C152       C1321   1.476       .  S
O157       Ni163   1.918       .  S
O157        C178   1.268       .  A
O158       Ni181   1.908       .  S
O158        C167   1.267       .  A
O159       Ni163   1.918       .  S
O159       Ni181   1.904   1_556  S
O159       Ni175   1.925       .  S
O159        H182   0.966       .  S
C160        O177   1.278       .  A
C160        O169   1.279       .  A
C160       C1290   1.490       .  S
O161       Ni180   1.921       .  S
O161        C167   1.268       .  A
O162       Ni180   1.898       .  S
O162        C164   1.267   1_554  A
Ni163       O166   1.925       .  S
Ni163       O168   1.913       .  S
C164        O174   1.288       .  A
C164       C1170   1.516       .  S
O165       Ni181   1.941       .  S
O165        C171   1.283   1_554  A
O166        C171   1.277       .  A
C167       C1201   1.472       .  S
O168        C170   1.265       .  A
O169       Ni180   1.929   1_556  S
C170        O176   1.270   1_556  A
C170       C1150   1.487       .  S
C171       C1221   1.499   1_556  S
H172        O173   0.966       .  S
O173       Ni181   1.933       .  S
O173       Ni175   1.908   1_554  S
O173       Ni180   1.895       .  S
O174       Ni175   1.979       .  S
Ni175       O179   1.920       .  S
Ni175       O177   1.929       .  S
O176       Ni181   1.941       .  S
C178        O179   1.273       .  A
C178       C1181   1.477       .  S
O183       Ni189   1.925       .  S
O183        C204   1.269       .  A
O184       Ni207   1.917       .  S
O184        C193   1.271       .  A
O185       Ni189   1.908       .  S
O185       Ni207   1.901       .  S
O185       Ni201   1.926       .  S
O185        H208   0.967       .  S
C186        O203   1.283       .  A
C186        O195   1.277       .  A
C186       C1250   1.493       .  S
O187       Ni206   1.910       .  S
O187        C193   1.268       .  A
O188       Ni206   1.912       .  S
O188        C190   1.269       .  A
Ni189       O192   1.933       .  S
Ni189       O194   1.913       .  S
C190        O200   1.274       .  A
C190       C1101   1.484       .  S
O191       Ni207   1.946       .  S
O191        C197   1.286       .  A
O192        C197   1.280       .  A
C193       C1190   1.480       .  S
O194        C196   1.268       .  A
O195       Ni206   1.917       .  S
C196        O202   1.270       .  A
C196       C1090   1.488       .  S
C197       C1130   1.500       .  S
H198        O199   0.966       .  S
O199       Ni207   1.930       .  S
O199       Ni201   1.896       .  S
O199       Ni206   1.894       .  S
O200       Ni201   1.936       .  S
Ni201       O205   1.910       .  S
Ni201       O203   1.941       .  S
O202       Ni207   1.929       .  S
C204        O205   1.268       .  A
C204       C1210   1.484       .  S
O209       Ni215   1.906       .  S
O209        C230   1.265       .  A
O210       Ni233   1.908       .  S
O210        C219   1.269       .  A
O211       Ni215   1.888   1_556  S
O211       Ni233   1.892       .  S
O211       Ni227   1.913   1_556  S
O211        H234   0.964       .  S
C212        O229   1.277   1_556  A
C212        O221   1.276       .  A
C212       C1070   1.473   1_556  S
O213       Ni232   1.922       .  S
O213        C219   1.269       .  A
O214       Ni232   1.910       .  S
O214        C216   1.268       .  A
Ni215       O218   1.906   1_554  S
Ni215       O220   1.908       .  S
C216        O226   1.276   1_556  A
C216       C1010   1.502       .  S
O217       Ni233   1.927       .  S
O217        C223   1.280       .  A
O218        C223   1.277       .  A
C219       C1021   1.487       .  S
O220        C222   1.267   1_554  A
O221       Ni232   1.922       .  S
C222        O228   1.279       .  A
C222       C1161   1.502       .  S
C223       C1301   1.467       .  S
H224        O225   0.967       .  S
O225       Ni233   1.919       .  S
O225       Ni227   1.918   1_556  S
O225       Ni232   1.908       .  S
O226       Ni227   1.952       .  S
Ni227       O231   1.927       .  S
Ni227       O229   1.919       .  S
O228       Ni233   1.957       .  S
C230        O231   1.271       .  A
C230       C1041   1.483       .  S
O235       Ni241   1.919       .  S
O235        C256   1.266       .  A
O236       Ni259   1.907       .  S
O236        C245   1.268       .  A
O237       Ni241   1.903       .  S
O237       Ni259   1.895       .  S
O237       Ni253   1.906       .  S
O237        H260   0.963       .  S
C238        O255   1.267       .  A
C238        O247   1.273       .  A
C238        C990   1.478       .  S
O239       Ni258   1.915       .  S
O239        C245   1.270       .  A
O240       Ni258   1.916       .  S
O240        C242   1.269       .  A
Ni241       O244   1.917       .  S
Ni241       O246   1.903       .  S
C242        O252   1.275       .  A
C242        C961   1.509       .  S
O243       Ni259   1.933       .  S
O243        C249   1.281       .  A
O244        C249   1.277       .  A
C245       C1050   1.469       .  S
O246        C248   1.268       .  A
O247       Ni258   1.942       .  S
C248        O254   1.274       .  A
C248       C1110   1.493       .  S
C249       C1270   1.488       .  S
H250        O251   0.966       .  S
O251       Ni259   1.934       .  S
O251       Ni253   1.915       .  S
O251       Ni258   1.919       .  S
O252       Ni253   1.956       .  S
Ni253       O257   1.902       .  S
Ni253       O255   1.905       .  S
O254       Ni259   1.942       .  S
C256        O257   1.262       .  A
C256       C1030   1.476       .  S
O261       Ni267   1.905       .  S
O261        C282   1.263       .  A
O262       Ni285   1.918   1_556  S
O262        C271   1.270       .  A
O263       Ni267   1.903       .  S
O263       Ni285   1.899       .  S
O263       Ni279   1.932       .  S
O263        H286   0.966       .  S
C264        O281   1.282       .  A
C264        O273   1.278       .  A
C264        C881   1.494       .  S
O265       Ni284   1.920   1_556  S
O265        C271   1.268       .  A
O266       Ni284   1.894       .  S
O266        C268   1.267       .  A
Ni267       O270   1.916       .  S
Ni267       O272   1.904       .  S
C268        O278   1.276       .  A
C268        C901   1.486       .  S
O269       Ni285   1.957       .  S
O269        C275   1.289       .  A
O270        C275   1.276       .  A
C271        C921   1.482       .  S
O272        C274   1.264       .  A
O273       Ni284   1.928       .  S
C274        O280   1.266       .  A
C274       C1061   1.470       .  S
C275       C1610   1.501       .  S
H276        O277   0.966       .  S
O277       Ni285   1.937       .  S
O277       Ni279   1.910       .  S
O277       Ni284   1.896       .  S
O278       Ni279   1.939       .  S
Ni279       O283   1.931       .  S
Ni279       O281   1.935       .  S
O280       Ni285   1.916       .  S
C282        O283   1.271       .  A
C282        C941   1.483       .  S
O287       Ni293   1.919       .  S
O287        C308   1.269       .  A
O288       Ni311   1.920       .  S
O288        C297   1.270       .  A
O289       Ni293   1.905       .  S
O289       Ni311   1.906       .  S
O289       Ni305   1.923       .  S
O289        H312   0.967       .  S
C290        O307   1.282       .  A
C290        O299   1.278       .  A
C290        C841   1.487       .  S
O291       Ni310   1.918       .  S
O291        C297   1.269       .  A
O292       Ni310   1.910       .  S
O292        C294   1.269       .  A
Ni293       O296   1.919       .  S
Ni293       O298   1.917       .  S
C294        O304   1.277       .  A
C294        C861   1.495       .  S
O295       Ni311   1.927       .  S
O295        C301   1.280       .  A
O296        C301   1.277       .  A
C297        C950   1.484       .  S
O298        C300   1.269       .  A
O299       Ni310   1.918       .  S
C300        O306   1.270       .  A
C300        C981   1.483       .  S
C301       C1521   1.489       .  S
H302        O303   0.966       .  S
O303       Ni311   1.923       .  S
O303       Ni305   1.902       .  S
O303       Ni310   1.893       .  S
O304       Ni305   1.945       .  S
Ni305       O309   1.921       .  S
Ni305       O307   1.939       .  S
O306       Ni311   1.927       .  S
C308        O309   1.271       .  A
C308        C930   1.478       .  S
O313       Ni319   1.925       .  S
O313        C334   1.270       .  A
O314       Ni337   1.915   1_556  S
O314        C323   1.268       .  A
O315       Ni319   1.898       .  S
O315       Ni337   1.899       .  S
O315       Ni331   1.910       .  S
O315        H338   0.965       .  S
C316        O333   1.275       .  A
C316        O325   1.277       .  A
C316        C910   1.468       .  S
O317       Ni336   1.917       .  S
O317        C323   1.266       .  A
O318       Ni336   1.903   1_554  S
O318        C320   1.267       .  A
Ni319       O322   1.914       .  S
Ni319       O324   1.914       .  S
C320        O330   1.275       .  A
C320        C790   1.496       .  S
O321       Ni337   1.924       .  S
O321        C327   1.280       .  A
O322        C327   1.278       .  A
C323        C801   1.477       .  S
O324        C326   1.268       .  A
O325       Ni336   1.919   1_554  S
C326        O332   1.273       .  A
C326       C1141   1.492       .  S
C327       C1510   1.472       .  S
H328        O329   0.966       .  S
O329       Ni337   1.912       .  S
O329       Ni331   1.906       .  S
O329       Ni336   1.899   1_554  S
O330       Ni331   1.950       .  S
Ni331       O335   1.910       .  S
Ni331       O333   1.911       .  S
O332       Ni337   1.935       .  S
C334        O335   1.269       .  A
C334        C830   1.478       .  S
O339       Ni345   1.924       .  S
O339        C360   1.271       .  A
O340       Ni363   1.914       .  S
O340        C349   1.269       .  A
O341       Ni345   1.901       .  S
O341       Ni363   1.896       .  S
O341       Ni357   1.922       .  S
O341        H364   0.966       .  S
C342        O359   1.282       .  A
C342        O351   1.275       .  A
C342        C870   1.494       .  S
O343       Ni362   1.921       .  S
O343        C349   1.268       .  A
O344       Ni362   1.906       .  S
O344        C346   1.269       .  A
Ni345       O348   1.928       .  S
Ni345       O350   1.913       .  S
C346        O356   1.269       .  A
C346        C761   1.484       .  S
O347       Ni363   1.937       .  S
O347        C353   1.282       .  A
O348        C353   1.279       .  A
C349        C821   1.483       .  S
O350        C352   1.269       .  A
O351       Ni362   1.921       .  S
C352        O358   1.273       .  A
C352       C1081   1.485       .  S
C353       C1410   1.494       .  S
H354        O355   0.966       .  S
O355       Ni363   1.930       .  S
O355       Ni357   1.909       .  S
O355       Ni362   1.911       .  S
O356       Ni357   1.923       .  S
Ni357       O361   1.908       .  S
Ni357       O359   1.944       .  S
O358       Ni363   1.932       .  S
C360        O361   1.269       .  A
C360        C810   1.471       .  S
O365       Ni371   1.920       .  S
O365        C386   1.265       .  A
O366       Ni389   1.908       .  S
O366        C375   1.266       .  A
O367       Ni371   1.921       .  S
O367       Ni389   1.918   1_556  S
O367       Ni383   1.937       .  S
O367        H390   0.966       .  S
C368        O385   1.282   1_554  A
C368        O377   1.279       .  A
C368       C1710   1.487       .  S
O369       Ni388   1.919       .  S
O369        C375   1.268       .  A
O370       Ni388   1.907       .  S
O370        C372   1.267       .  A
Ni371       O374   1.933       .  S
Ni371       O376   1.896       .  S
C372        O382   1.272   1_554  A
C372       C1001   1.500       .  S
O373       Ni389   1.927       .  S
O373        C379   1.276       .  A
O374        C379   1.277   1_556  A
C375        C741   1.468       .  S
O376        C378   1.265   1_556  A
O377       Ni388   1.924       .  S
C378        O384   1.271       .  A
C378        C681   1.476       .  S
C379        C701   1.497       .  S
H380        O381   0.965       .  S
O381       Ni389   1.918       .  S
O381       Ni383   1.897   1_554  S
O381       Ni388   1.902       .  S
O382       Ni383   1.936       .  S
Ni383       O387   1.914       .  S
Ni383       O385   1.929       .  S
O384       Ni389   1.929       .  S
C386        O387   1.265       .  A
C386        C730   1.472       .  S
O391       Ni397   1.916       .  S
O391        C412   1.266       .  A
O392       Ni415   1.929       .  S
O392        C401   1.276       .  A
O393       Ni397   1.906       .  S
O393       Ni415   1.910       .  S
O393       Ni409   1.937       .  S
O393        H416   0.966       .  S
C394        O411   1.288       .  A
C394        O403   1.277       .  A
C394        C641   1.487       .  S
O395       Ni414   1.917       .  S
O395        C401   1.272       .  A
O396       Ni414   1.924       .  S
O396        C398   1.272       .  A
Ni397       O400   1.925       .  S
Ni397       O402   1.903       .  S
C398        O408   1.281       .  A
C398        C670   1.522       .  S
O399       Ni415   1.941       .  S
O399        C405   1.284       .  A
O400        C405   1.278       .  A
C401        C750   1.485       .  S
O402        C404   1.267       .  A
O403       Ni414   1.912       .  S
C404        O410   1.278       .  A
C404       C1590   1.494       .  S
C405        C970   1.494       .  S
H406        O407   0.966       .  S
O407       Ni415   1.924       .  S
O407       Ni409   1.891       .  S
O407       Ni414   1.882       .  S
O408       Ni409   1.960       .  S
Ni409       O413   1.929       .  S
Ni409       O411   1.947       .  S
O410       Ni415   1.954       .  S
C412        O413   1.273       .  A
C412        C721   1.483       .  S
O417       Ni423   1.919       .  S
O417        C438   1.271       .  A
O418       Ni441   1.909       .  S
O418        C427   1.267       .  A
O419       Ni423   1.910   1_554  S
O419       Ni441   1.911       .  S
O419       Ni435   1.927       .  S
O419        H442   0.966       .  S
C420        O437   1.278       .  A
C420        O429   1.273       .  A
C420       C1430   1.502       .  S
O421       Ni440   1.918       .  S
O421        C427   1.269       .  A
O422       Ni440   1.905       .  S
O422        C424   1.266       .  A
Ni423       O426   1.929   1_556  S
Ni423       O428   1.904       .  S
C424        O434   1.277       .  A
C424       C1230   1.486       .  S
O425       Ni441   1.917       .  S
O425        C431   1.272       .  A
O426        C431   1.274       .  A
C427        C621   1.481       .  S
O428        C430   1.269   1_556  A
O429       Ni440   1.922       .  S
C430        O436   1.280       .  A
C430        C710   1.499       .  S
C431        C581   1.484       .  S
H432        O433   0.966       .  S
O433       Ni441   1.922       .  S
O433       Ni435   1.912       .  S
O433       Ni440   1.919       .  S
O434       Ni435   1.951       .  S
Ni435       O439   1.911   1_554  S
Ni435       O437   1.937       .  S
O436       Ni441   1.957       .  S
C438        O439   1.269       .  A
C438        C601   1.484       .  S
O443       Ni449   1.918       .  S
O443        C464   1.270       .  A
O444       Ni467   1.933       .  S
O444        C453   1.277       .  A
O445       Ni449   1.880       .  S
O445       Ni467   1.898       .  S
O445       Ni461   1.921       .  S
O445        H468   0.966       .  S
C446        O463   1.285       .  A
C446        O455   1.276       .  A
C446       C1370   1.479       .  S
O447       Ni466   1.913       .  S
O447        C453   1.267       .  A
O448       Ni466   1.919       .  S
O448        C450   1.268       .  A
Ni449       O452   1.918       .  S
Ni449       O454   1.902       .  S
C450        O460   1.274       .  A
C450       C1121   1.521       .  S
O451       Ni467   1.927       .  S
O451        C457   1.281       .  A
O452        C457   1.280       .  A
C453        C610   1.484       .  S
O454        C456   1.268       .  A
O455       Ni466   1.910       .  S
C456        O462   1.289       .  A
C456        C661   1.513       .  S
C457        C561   1.477       .  S
H458        O459   0.967       .  S
O459       Ni467   1.925       .  S
O459       Ni461   1.903       .  S
O459       Ni466   1.903       .  S
O460       Ni461   1.951       .  S
Ni461       O465   1.926       .  S
Ni461       O463   1.947       .  S
O462       Ni467   1.983       .  S
C464        O465   1.274       .  A
C464        C630   1.482       .  S
O469       Ni475   1.916   1_556  S
O469        C490   1.268       .  A
O470       Ni493   1.913       .  S
O470        C479   1.268       .  A
O471       Ni475   1.876       .  S
O471       Ni493   1.889       .  S
O471       Ni487   1.921       .  S
O471        H494   0.966       .  S
C472        O489   1.283   1_455  A
C472        O481   1.277       .  A
C472        C690   1.491       .  S
O473       Ni492   1.913       .  S
O473        C479   1.266   1_455  A
O474       Ni492   1.908       .  S
O474        C476   1.267       .  A
Ni475       O478   1.918       .  S
Ni475       O480   1.906       .  S
C476        O486   1.269       .  A
C476        C590   1.476       .  S
O477       Ni493   1.943       .  S
O477        C483   1.285       .  A
O478        C483   1.281       .  A
C479        C550   1.476       .  S
O480        C482   1.268       .  A
O481       Ni492   1.916       .  S
C482        O488   1.276       .  A
C482        C781   1.494       .  S
C483        C890   1.488       .  S
H484        O485   0.967       .  S
O485       Ni493   1.930       .  S
O485       Ni487   1.904       .  S
O485       Ni492   1.896   1_655  S
O486       Ni487   1.924   1_455  S
Ni487       O491   1.920   1_554  S
Ni487       O489   1.936       .  S
O488       Ni493   1.946       .  S
C490        O491   1.272       .  A
C490        C530   1.488       .  S
O495       Ni501   1.923       .  S
O495        C516   1.270       .  A
O496       Ni519   1.918       .  S
O496        C505   1.270       .  A
O497       Ni501   1.887       .  S
O497       Ni519   1.904       .  S
O497       Ni513   1.918       .  S
O497        H520   0.966   1_655  S
C498        O515   1.280   1_455  A
C498        O507   1.274       .  A
C498        C650   1.490       .  S
O499       Ni518   1.909       .  S
O499        C505   1.266   1_455  A
O500       Ni518   1.916       .  S
O500        C502   1.269       .  A
Ni501       O504   1.924       .  S
Ni501       O506   1.890       .  S
C502        O512   1.269       .  A
C502        C570   1.478       .  S
O503       Ni519   1.935       .  S
O503        C509   1.280       .  A
O504        C509   1.278       .  A
C505        C521   1.472       .  S
O506        C508   1.266       .  A
O507       Ni518   1.913       .  S
C508        O514   1.277       .  A
C508        C770   1.487       .  S
C509        C850   1.496       .  S
H510        O511   0.967       .  S
O511       Ni519   1.921       .  S
O511       Ni513   1.904       .  S
O511       Ni518   1.902   1_655  S
O512       Ni513   1.922   1_455  S
Ni513       O517   1.911   1_655  S
Ni513       O515   1.931       .  S
O514       Ni519   1.946       .  S
C516        O517   1.269   1_655  A
C516        C541   1.480       .  S
C521        C522   1.411   1_655  A
C521        C526   1.411       .  A
C522        C523   1.402       .  A
C522       Br534   1.927       .  S
C523        C524   1.405   1_455  A
C523       Br538   1.931       .  S
C524        C527   1.478       .  S
C524        C525   1.409       .  A
C525        C526   1.407       .  A
C525       Br533   1.930       .  S
C526       Br537   1.930       .  S
C527        C528   1.407       .  A
C527        C532   1.402       .  A
C528        C529   1.408       .  A
C528       Br539   1.932   1_655  S
C529        C530   1.417       .  A
C529       Br535   1.929   1_655  S
C530        C531   1.422       .  A
C531        C532   1.404       .  A
C531       Br540   1.935       .  S
C532       Br536   1.934       .  S
C541        C542   1.415       .  A
C541        C546   1.412   1_655  A
C542        C543   1.405       .  A
C542       Br554   1.933       .  S
C543        C544   1.407       .  A
C543       Br558   1.932       .  S
C544        C547   1.483       .  S
C544        C545   1.411   1_655  A
C545        C546   1.409       .  A
C545       Br553   1.931       .  S
C546       Br557   1.931       .  S
C547        C548   1.407       .  A
C547        C552   1.412       .  A
C548        C549   1.404       .  A
C548       Br559   1.932   1_655  S
C549        C550   1.416       .  A
C549       Br555   1.935       .  S
C550        C551   1.411       .  A
C551        C552   1.408       .  A
C551       Br560   1.931       .  S
C552       Br556   1.930       .  S
C561        C562   1.412       .  A
C561        C566   1.412       .  A
C562        C563   1.406       .  A
C562       Br574   1.932       .  S
C563        C564   1.408       .  A
C563       Br578   1.929       .  S
C564        C567   1.484       .  S
C564        C565   1.410       .  A
C565        C566   1.407       .  A
C565       Br573   1.931       .  S
C566       Br577   1.932       .  S
C567        C568   1.408       .  A
C567        C572   1.410       .  A
C568        C569   1.409       .  A
C568       Br579   1.930       .  S
C569        C570   1.411       .  A
C569       Br575   1.923       .  S
C570        C571   1.410       .  A
C571        C572   1.406       .  A
C571       Br580   1.931       .  S
C572       Br576   1.931       .  S
C581        C582   1.414       .  A
C581        C586   1.413       .  A
C582        C583   1.407       .  A
C582       Br594   1.929       .  S
C583        C584   1.408       .  A
C583       Br598   1.932       .  S
C584        C587   1.487       .  S
C584        C585   1.409       .  A
C585        C586   1.411       .  A
C585       Br593   1.929       .  S
C586       Br597   1.929   1_554  S
C587        C588   1.410       .  A
C587        C592   1.410       .  A
C588        C589   1.407       .  A
C588       Br599   1.932       .  S
C589        C590   1.412       .  A
C589       Br595   1.931       .  S
C590        C591   1.410       .  A
C591        C592   1.409       .  A
C591       Br600   1.931       .  S
C592       Br596   1.927       .  S
C601        C602   1.414       .  A
C601        C606   1.416       .  A
C602        C603   1.412       .  A
C602       Br614   1.931       .  S
C603        C604   1.411       .  A
C603       Br618   1.928       .  S
C604        C607   1.485       .  S
C604        C605   1.405       .  A
C605        C606   1.403       .  A
C605       Br613   1.933       .  S
C606       Br617   1.934       .  S
C607        C608   1.411       .  A
C607        C612   1.405       .  A
C608        C609   1.409       .  A
C608       Br619   1.930       .  S
C609        C610   1.410       .  A
C609       Br615   1.926       .  S
C610        C611   1.418       .  A
C611        C612   1.408       .  A
C611       Br620   1.932       .  S
C612       Br616   1.931       .  S
C621        C622   1.412       .  A
C621        C626   1.414       .  A
C622        C623   1.410       .  A
C622       Br634   1.929       .  S
C623        C624   1.411       .  A
C623       Br638   1.929       .  S
C624        C627   1.485       .  S
C624        C625   1.406       .  A
C625        C626   1.404       .  A
C625       Br633   1.929       .  S
C626       Br637   1.934       .  S
C627        C628   1.405       .  A
C627        C632   1.412       .  A
C628        C629   1.407       .  A
C628       Br639   1.930       .  S
C629        C630   1.415       .  A
C629       Br635   1.932       .  S
C630        C631   1.411       .  A
C631        C632   1.411       .  A
C631       Br640   1.929       .  S
C632       Br636   1.930       .  S
C641        C642   1.420       .  A
C641        C646   1.414       .  A
C642        C643   1.406       .  A
C642       Br654   1.935       .  S
C643        C644   1.406       .  A
C643       Br658   1.935       .  S
C644        C647   1.484       .  S
C644        C645   1.409       .  A
C645        C646   1.410       .  A
C645       Br653   1.930   1_455  S
C646       Br657   1.930       .  S
C647        C648   1.404       .  A
C647        C652   1.410       .  A
C648        C649   1.404       .  A
C648       Br659   1.937       .  S
C649        C650   1.424       .  A
C649       Br655   1.938       .  S
C650        C651   1.416   1_455  A
C651        C652   1.412   1_655  A
C651       Br660   1.931       .  S
C652       Br656   1.929   1_455  S
C661        C662   1.414       .  A
C661        C666   1.423       .  A
C662        C663   1.426       .  A
C662       Br674   1.926       .  S
C663        C664   1.417       .  A
C663       Br678   1.924       .  S
C664        C667   1.517       .  S
C664        C665   1.409       .  A
C665        C666   1.415       .  A
C665       Br673   1.934       .  S
C666       Br677   1.931       .  S
C667        C668   1.412       .  A
C667        C672   1.412       .  A
C668        C669   1.420       .  A
C668       Br679   1.930       .  S
C669        C670   1.423       .  A
C669       Br675   1.932       .  S
C670        C671   1.424       .  A
C671        C672   1.423       .  A
C671       Br680   1.929       .  S
C672       Br676   1.929       .  S
C681        C682   1.412       .  A
C681        C686   1.416       .  A
C682        C683   1.407       .  A
C682       Br694   1.928       .  S
C683        C684   1.408       .  A
C683       Br698   1.929       .  S
C684        C687   1.479       .  S
C684        C685   1.406       .  A
C685        C686   1.403       .  A
C685       Br693   1.933   1_554  S
C686       Br697   1.935   1_554  S
C687        C688   1.406       .  A
C687        C692   1.403       .  A
C688        C689   1.410   1_455  A
C688       Br699   1.930   1_454  S
C689        C690   1.416   1_655  A
C689       Br695   1.928       .  S
C690        C691   1.424       .  A
C691        C692   1.404       .  A
C691       Br700   1.937       .  S
C692       Br696   1.937       .  S
C701        C702   1.419       .  A
C701        C706   1.414   1_554  A
C702        C703   1.415       .  A
C702       Br714   1.931       .  S
C703        C704   1.411       .  A
C703       Br718   1.930       .  S
C704        C707   1.500       .  S
C704        C705   1.410       .  A
C705        C706   1.413   1_554  A
C705       Br713   1.928   1_554  S
C706       Br717   1.930       .  S
C707        C708   1.408       .  A
C707        C712   1.413       .  A
C708        C709   1.409       .  A
C708       Br719   1.934   1_554  S
C709        C710   1.420       .  A
C709       Br715   1.935   1_554  S
C710        C711   1.416       .  A
C711        C712   1.419       .  A
C711       Br720   1.928       .  S
C712       Br716   1.927       .  S
C721        C722   1.417       .  A
C721        C726   1.411       .  A
C722        C723   1.407       .  A
C722       Br734   1.932       .  S
C723        C724   1.405       .  A
C723       Br738   1.931       .  S
C724        C727   1.486       .  S
C724        C725   1.411       .  A
C725        C726   1.411       .  A
C725       Br733   1.930       .  S
C726       Br737   1.928       .  S
C727        C728   1.412       .  A
C727        C732   1.407       .  A
C728        C729   1.411       .  A
C728       Br739   1.928       .  S
C729        C730   1.409       .  A
C729       Br735   1.928       .  S
C730        C731   1.410       .  A
C731        C732   1.403       .  A
C731       Br740   1.934       .  S
C732       Br736   1.929       .  S
C741        C742   1.407       .  A
C741        C746   1.406       .  A
C742        C743   1.405       .  A
C742       Br754   1.932       .  S
C743        C744   1.412       .  A
C743       Br758   1.930       .  S
C744        C747   1.489       .  S
C744        C745   1.414       .  A
C745        C746   1.409       .  A
C745       Br753   1.928       .  S
C746       Br757   1.929       .  S
C747        C748   1.408       .  A
C747        C752   1.412       .  A
C748        C749   1.407       .  A
C748       Br759   1.933       .  S
C749        C750   1.415       .  A
C749       Br755   1.932       .  S
C750        C751   1.412       .  A
C751        C752   1.412       .  A
C751       Br760   1.928       .  S
C752       Br756   1.931       .  S
C761        C762   1.417       .  A
C761        C766   1.414       .  A
C762        C763   1.408       .  A
C762       Br774   1.935       .  S
C763        C764   1.409       .  A
C763       Br778   1.933       .  S
C764        C767   1.483       .  S
C764        C765   1.407       .  A
C765        C766   1.406       .  A
C765       Br773   1.930       .  S
C766       Br777   1.929       .  S
C767        C768   1.404       .  A
C767        C772   1.410       .  A
C768        C769   1.401       .  A
C768       Br779   1.936       .  S
C769        C770   1.419       .  A
C769       Br775   1.935       .  S
C770        C771   1.414       .  A
C771        C772   1.414       .  A
C771       Br780   1.927       .  S
C772       Br776   1.928       .  S
C781        C782   1.416       .  A
C781        C786   1.413       .  A
C782        C783   1.415       .  A
C782       Br794   1.928       .  S
C783        C784   1.411       .  A
C783       Br798   1.929       .  S
C784        C787   1.499       .  S
C784        C785   1.410       .  A
C785        C786   1.412       .  A
C785       Br793   1.928       .  S
C786       Br797   1.929       .  S
C787        C788   1.412       .  A
C787        C792   1.408       .  A
C788        C789   1.418       .  A
C788       Br799   1.926       .  S
C789        C790   1.416       .  A
C789       Br795   1.927       .  S
C790        C791   1.417       .  A
C791        C792   1.407       .  A
C791       Br800   1.936       .  S
C792       Br796   1.927       .  S
C801        C802   1.410       .  A
C801        C806   1.415       .  A
C802        C803   1.408       .  A
C802       Br814   1.930       .  S
C803        C804   1.411       .  A
C803       Br818   1.931       .  S
C804        C807   1.483       .  S
C804        C805   1.407       .  A
C805        C806   1.405       .  A
C805       Br813   1.931       .  S
C806       Br817   1.934       .  S
C807        C808   1.410       .  A
C807        C812   1.410       .  A
C808        C809   1.406       .  A
C808       Br819   1.930       .  S
C809        C810   1.409       .  A
C809       Br815   1.931       .  S
C810        C811   1.408       .  A
C811        C812   1.405       .  A
C811       Br820   1.928       .  S
C812       Br816   1.929       .  S
C821        C822   1.415       .  A
C821        C826   1.414       .  A
C822        C823   1.408       .  A
C822       Br834   1.932       .  S
C823        C824   1.407       .  A
C823       Br838   1.929       .  S
C824        C827   1.481       .  S
C824        C825   1.407       .  A
C825        C826   1.406       .  A
C825       Br833   1.932       .  S
C826       Br837   1.929       .  S
C827        C828   1.406       .  A
C827        C832   1.409       .  A
C828        C829   1.403       .  A
C828       Br839   1.931       .  S
C829        C830   1.413       .  A
C829       Br835   1.933       .  S
C830        C831   1.413       .  A
C831        C832   1.409       .  A
C831       Br840   1.929       .  S
C832       Br836   1.929       .  S
C841        C842   1.414       .  A
C841        C846   1.414       .  A
C842        C843   1.415       .  A
C842       Br854   1.928       .  S
C843        C844   1.411       .  A
C843       Br858   1.927   1_655  S
C844        C847   1.493       .  S
C844        C845   1.408       .  A
C845        C846   1.405       .  A
C845       Br853   1.930       .  S
C846       Br857   1.933       .  S
C847        C848   1.408       .  A
C847        C852   1.410       .  A
C848        C849   1.408       .  A
C848       Br859   1.931   1_655  S
C849        C850   1.416       .  A
C849       Br855   1.932   1_655  S
C850        C851   1.418       .  A
C851        C852   1.414       .  A
C851       Br860   1.931       .  S
C852       Br856   1.930       .  S
C861        C862   1.416       .  A
C861        C866   1.415       .  A
C862        C863   1.414       .  A
C862       Br874   1.931       .  S
C863        C864   1.412       .  A
C863       Br878   1.929       .  S
C864        C867   1.500       .  S
C864        C865   1.411       .  A
C865        C866   1.412       .  A
C865       Br873   1.931       .  S
C866       Br877   1.926       .  S
C867        C868   1.410       .  A
C867        C872   1.414       .  A
C868        C869   1.408       .  A
C868       Br879   1.933       .  S
C869        C870   1.417       .  A
C869       Br875   1.933       .  S
C870        C871   1.413       .  A
C871        C872   1.418       .  A
C871       Br880   1.926       .  S
C872       Br876   1.927       .  S
C881        C882   1.417       .  A
C881        C886   1.415       .  A
C882        C883   1.412       .  A
C882       Br894   1.930       .  S
C883        C884   1.409       .  A
C883       Br898   1.930       .  S
C884        C887   1.495       .  S
C884        C885   1.410       .  A
C885        C886   1.412       .  A
C885       Br893   1.930       .  S
C886       Br897   1.930       .  S
C887        C888   1.413       .  A
C887        C892   1.409       .  A
C888        C889   1.417       .  A
C888       Br899   1.926   1_655  S
C889        C890   1.413       .  A
C889       Br895   1.928   1_655  S
C890        C891   1.412       .  A
C891        C892   1.404       .  A
C891       Br900   1.928       .  S
C892       Br896   1.932       .  S
C901        C902   1.414       .  A
C901        C906   1.420       .  A
C902        C903   1.411       .  A
C902       Br914   1.928       .  S
C903        C904   1.408       .  A
C903       Br918   1.928       .  S
C904        C907   1.480       .  S
C904        C905   1.405       .  A
C905        C906   1.401       .  A
C905       Br913   1.937       .  S
C906       Br917   1.936       .  S
C907        C908   1.410       .  A
C907        C912   1.408       .  A
C908        C909   1.407       .  A
C908       Br919   1.930       .  S
C909        C910   1.411       .  A
C909       Br915   1.932       .  S
C910        C911   1.408       .  A
C911        C912   1.402       .  A
C911       Br920   1.931       .  S
C912       Br916   1.931       .  S
C921        C922   1.413       .  A
C921        C926   1.414       .  A
C922        C923   1.407       .  A
C922       Br934   1.932       .  S
C923        C924   1.409       .  A
C923       Br938   1.931       .  S
C924        C927   1.489       .  S
C924        C925   1.410       .  A
C925        C926   1.410       .  A
C925       Br933   1.929       .  S
C926       Br937   1.932       .  S
C927        C928   1.413       .  A
C927        C932   1.409       .  A
C928        C929   1.411       .  A
C928       Br939   1.929       .  S
C929        C930   1.409       .  A
C929       Br935   1.926       .  S
C930        C931   1.411       .  A
C931        C932   1.406       .  A
C931       Br940   1.931       .  S
C932       Br936   1.931       .  S
C941        C942   1.411       .  A
C941        C946   1.418       .  A
C942        C943   1.411       .  A
C942       Br954   1.927       .  S
C943        C944   1.410       .  A
C943       Br958   1.927       .  S
C944        C947   1.482       .  S
C944        C945   1.404       .  A
C945        C946   1.402       .  A
C945       Br953   1.935       .  S
C946       Br957   1.931       .  S
C947        C948   1.405       .  A
C947        C952   1.409       .  A
C948        C949   1.404       .  A
C948       Br959   1.932       .  S
C949        C950   1.413       .  A
C949       Br955   1.927       .  S
C950        C951   1.416       .  A
C951        C952   1.411       .  A
C951       Br960   1.932       .  S
C952       Br956   1.930       .  S
C961        C962   1.423       .  A
C961        C966   1.425       .  A
C962        C963   1.412   1_565  A
C962       Br974   1.934       .  S
C963        C964   1.406       .  A
C963       Br978   1.932       .  S
C964        C967   1.498       .  S
C964        C965   1.408       .  A
C965        C966   1.416   1_545  A
C965       Br973   1.931       .  S
C966       Br977   1.931       .  S
C967        C968   1.412       .  A
C967        C972   1.409       .  A
C968        C969   1.416       .  A
C968       Br979   1.927       .  S
C969        C970   1.413       .  A
C969       Br975   1.928       .  S
C970        C971   1.417       .  A
C971        C972   1.410       .  A
C971       Br980   1.932       .  S
C972       Br976   1.932       .  S
C981        C982   1.411   1_655  A
C981        C986   1.411       .  A
C982        C983   1.412       .  A
C982       Br994   1.930       .  S
C983        C984   1.412       .  A
C983       Br998   1.928       .  S
C984        C987   1.494       .  S
C984        C985   1.411       .  A
C985        C986   1.409   1_455  A
C985       Br993   1.931       .  S
C986       Br997   1.930       .  S
C987        C988   1.413       .  A
C987        C992   1.412       .  A
C988        C989   1.409       .  A
C988       Br999   1.928       .  S
C989        C990   1.407       .  A
C989       Br995   1.930       .  S
C990        C991   1.411       .  A
C991        C992   1.411       .  A
C991      Br1000   1.929       .  S
C992       Br996   1.929       .  S
C1001      C1002   1.421       .  A
C1001      C1006   1.419   1_554  A
C1002      C1003   1.409       .  A
C1002     Br1014   1.937       .  S
C1003      C1004   1.408   1_554  A
C1003     Br1018   1.933       .  S
C1004      C1007   1.499       .  S
C1004      C1005   1.411       .  A
C1005      C1006   1.417       .  A
C1005     Br1013   1.929       .  S
C1006     Br1017   1.930       .  S
C1007      C1008   1.411   1_556  A
C1007      C1012   1.408       .  A
C1008      C1009   1.417       .  A
C1008     Br1019   1.931       .  S
C1009      C1010   1.419   1_544  A
C1009     Br1015   1.928   1_545  S
C1010      C1011   1.420   1_565  A
C1011      C1012   1.411       .  A
C1011     Br1020   1.934   1_545  S
C1012     Br1016   1.931       .  S
C1021      C1022   1.417       .  A
C1021      C1026   1.420       .  A
C1022      C1023   1.405       .  A
C1022     Br1034   1.931       .  S
C1023      C1024   1.405       .  A
C1023     Br1038   1.932       .  S
C1024      C1027   1.480       .  S
C1024      C1025   1.406       .  A
C1025      C1026   1.409       .  A
C1025     Br1033   1.931       .  S
C1026     Br1037   1.933       .  S
C1027      C1028   1.406       .  A
C1027      C1032   1.409       .  A
C1028      C1029   1.403       .  A
C1028     Br1039   1.932       .  S
C1029      C1030   1.415       .  A
C1029     Br1035   1.934       .  S
C1030      C1031   1.413       .  A
C1031      C1032   1.408       .  A
C1031     Br1040   1.932       .  S
C1032     Br1036   1.929       .  S
C1041      C1042   1.419       .  A
C1041      C1046   1.412       .  A
C1042      C1043   1.403       .  A
C1042     Br1054   1.932       .  S
C1043      C1044   1.403       .  A
C1043     Br1058   1.933       .  S
C1044      C1047   1.480       .  S
C1044      C1045   1.410       .  A
C1045      C1046   1.410       .  A
C1045     Br1053   1.929       .  S
C1046     Br1057   1.929       .  S
C1047      C1048   1.410       .  A
C1047      C1052   1.407       .  A
C1048      C1049   1.407       .  A
C1048     Br1059   1.930       .  S
C1049      C1050   1.409       .  A
C1049     Br1055   1.928       .  S
C1050      C1051   1.409       .  A
C1051      C1052   1.403       .  A
C1051     Br1060   1.932       .  S
C1052     Br1056   1.929       .  S
C1061      C1062   1.409   1_655  A
C1061      C1066   1.410       .  A
C1062      C1063   1.405       .  A
C1062     Br1074   1.929       .  S
C1063      C1064   1.408       .  A
C1063     Br1078   1.930       .  S
C1064      C1067   1.479       .  S
C1064      C1065   1.409       .  A
C1065      C1066   1.406   1_455  A
C1065     Br1073   1.929   1_554  S
C1066     Br1077   1.932   1_554  S
C1067      C1068   1.409       .  A
C1067      C1072   1.407   1_554  A
C1068      C1069   1.408       .  A
C1068     Br1079   1.929       .  S
C1069      C1070   1.409       .  A
C1069     Br1075   1.928       .  S
C1070      C1071   1.412   1_554  A
C1071      C1072   1.405       .  A
C1071     Br1080   1.931       .  S
C1072     Br1076   1.931       .  S
C1081      C1082   1.412       .  A
C1081      C1086   1.413       .  A
C1082      C1083   1.409       .  A
C1082     Br1094   1.931       .  S
C1083      C1084   1.410       .  A
C1083     Br1098   1.930       .  S
C1084      C1087   1.491       .  S
C1084      C1085   1.410       .  A
C1085      C1086   1.412       .  A
C1085     Br1093   1.929       .  S
C1086     Br1097   1.925       .  S
C1087      C1088   1.409       .  A
C1087      C1092   1.409       .  A
C1088      C1089   1.411       .  A
C1088     Br1099   1.930       .  S
C1089      C1090   1.415       .  A
C1089     Br1095   1.931       .  S
C1090      C1091   1.415       .  A
C1091      C1092   1.410       .  A
C1091     Br1100   1.932       .  S
C1092     Br1096   1.929       .  S
C1101      C1102   1.410       .  A
C1101      C1106   1.412       .  A
C1102      C1103   1.411       .  A
C1102     Br1114   1.926       .  S
C1103      C1104   1.411       .  A
C1103     Br1118   1.928       .  S
C1104      C1107   1.494       .  S
C1104      C1105   1.411       .  A
C1105      C1106   1.410       .  A
C1105     Br1113   1.930       .  S
C1106     Br1117   1.928       .  S
C1107      C1108   1.412       .  A
C1107      C1112   1.409       .  A
C1108      C1109   1.417       .  A
C1108     Br1119   1.927       .  S
C1109      C1110   1.416       .  A
C1109     Br1115   1.927       .  S
C1110      C1111   1.416       .  A
C1111      C1112   1.404       .  A
C1111     Br1120   1.935       .  S
C1112     Br1116   1.934       .  S
C1121      C1122   1.429       .  A
C1121      C1126   1.426       .  A
C1122      C1123   1.416       .  A
C1122     Br1134   1.935       .  S
C1123      C1124   1.407       .  A
C1123     Br1138   1.932       .  S
C1124      C1127   1.507       .  S
C1124      C1125   1.410       .  A
C1125      C1126   1.420       .  A
C1125     Br1133   1.931       .  S
C1126     Br1137   1.932       .  S
C1127      C1128   1.414       .  A
C1127      C1132   1.410       .  A
C1128      C1129   1.418       .  A
C1128     Br1139   1.927       .  S
C1129      C1130   1.415       .  A
C1129     Br1135   1.930       .  S
C1130      C1131   1.417       .  A
C1131      C1132   1.414       .  A
C1131     Br1140   1.930       .  S
C1132     Br1136   1.930       .  S
C1141      C1142   1.416       .  A
C1141      C1146   1.415       .  A
C1142      C1143   1.412   1_554  A
C1142     Br1154   1.931   1_554  S
C1143      C1144   1.410   1_556  A
C1143     Br1158   1.930       .  S
C1144      C1147   1.496       .  S
C1144      C1145   1.409       .  A
C1145      C1146   1.412       .  A
C1145     Br1153   1.929       .  S
C1146     Br1157   1.931       .  S
C1147      C1148   1.411   1_554  A
C1147      C1152   1.411       .  A
C1148      C1149   1.413       .  A
C1148     Br1159   1.927       .  S
C1149      C1150   1.410       .  A
C1149     Br1155   1.929       .  S
C1150      C1151   1.412   1_556  A
C1151      C1152   1.412       .  A
C1151     Br1160   1.926       .  S
C1152     Br1156   1.931       .  S
C1161      C1162   1.416       .  A
C1161      C1166   1.415       .  A
C1162      C1163   1.418       .  A
C1162     Br1174   1.930       .  S
C1163      C1164   1.415       .  A
C1163     Br1178   1.929       .  S
C1164      C1167   1.512       .  S
C1164      C1165   1.413       .  A
C1165      C1166   1.417       .  A
C1165     Br1173   1.929   1_556  S
C1166     Br1177   1.929   1_556  S
C1167      C1168   1.416       .  A
C1167      C1172   1.407       .  A
C1168      C1169   1.425       .  A
C1168     Br1179   1.926       .  S
C1169      C1170   1.417       .  A
C1169     Br1175   1.926       .  S
C1170      C1171   1.429       .  A
C1171      C1172   1.413       .  A
C1171     Br1180   1.937   1_556  S
C1172     Br1176   1.936       .  S
C1181      C1182   1.414       .  A
C1181      C1186   1.409       .  A
C1182      C1183   1.405       .  A
C1182     Br1194   1.931       .  S
C1183      C1184   1.407       .  A
C1183     Br1198   1.933       .  S
C1184      C1187   1.481       .  S
C1184      C1185   1.409       .  A
C1185      C1186   1.408       .  A
C1185     Br1193   1.929       .  S
C1186     Br1197   1.927       .  S
C1187      C1188   1.408       .  A
C1187      C1192   1.406       .  A
C1188      C1189   1.408       .  A
C1188     Br1199   1.930       .  S
C1189      C1190   1.415       .  A
C1189     Br1195   1.933       .  S
C1190      C1191   1.414       .  A
C1191      C1192   1.405       .  A
C1191     Br1200   1.930       .  S
C1192     Br1196   1.932       .  S
C1201      C1202   1.410       .  A
C1201      C1206   1.411       .  A
C1202      C1203   1.406       .  A
C1202     Br1214   1.930       .  S
C1203      C1204   1.408       .  A
C1203     Br1218   1.929       .  S
C1204      C1207   1.479       .  S
C1204      C1205   1.407       .  A
C1205      C1206   1.405       .  A
C1205     Br1213   1.931       .  S
C1206     Br1217   1.932       .  S
C1207      C1208   1.407       .  A
C1207      C1212   1.404       .  A
C1208      C1209   1.408       .  A
C1208     Br1219   1.930       .  S
C1209      C1210   1.416       .  A
C1209     Br1215   1.930       .  S
C1210      C1211   1.419       .  A
C1211      C1212   1.405       .  A
C1211     Br1220   1.934       .  S
C1212     Br1216   1.934       .  S
C1221      C1222   1.420   1_554  A
C1221      C1226   1.417       .  A
C1222      C1223   1.407       .  A
C1222     Br1234   1.934       .  S
C1223      C1224   1.406   1_556  A
C1223     Br1238   1.933       .  S
C1224      C1227   1.498       .  S
C1224      C1225   1.413       .  A
C1225      C1226   1.418       .  A
C1225     Br1233   1.927       .  S
C1226     Br1237   1.929       .  S
C1227      C1228   1.412       .  A
C1227      C1232   1.411       .  A
C1228      C1229   1.414       .  A
C1228     Br1239   1.929       .  S
C1229      C1230   1.411       .  A
C1229     Br1235   1.928       .  S
C1230      C1231   1.410       .  A
C1231      C1232   1.412       .  A
C1231     Br1240   1.928       .  S
C1232     Br1236   1.929       .  S
C1241      C1242   1.412       .  A
C1241      C1246   1.409       .  A
C1242      C1243   1.408       .  A
C1242     Br1254   1.931       .  S
C1243      C1244   1.410       .  A
C1243     Br1258   1.930       .  S
C1244      C1247   1.490       .  S
C1244      C1245   1.411       .  A
C1245      C1246   1.409       .  A
C1245     Br1253   1.926       .  S
C1246     Br1257   1.928       .  S
C1247      C1248   1.408       .  A
C1247      C1252   1.408       .  A
C1248      C1249   1.405       .  A
C1248     Br1259   1.930       .  S
C1249      C1250   1.418       .  A
C1249     Br1255   1.936       .  S
C1250      C1251   1.418       .  A
C1251      C1252   1.414       .  A
C1251     Br1260   1.929       .  S
C1252     Br1256   1.927       .  S
C1261      C1262   1.416       .  A
C1261      C1266   1.415       .  A
C1262      C1263   1.405       .  A
C1262     Br1274   1.930       .  S
C1263      C1264   1.407       .  A
C1263     Br1278   1.933       .  S
C1264      C1267   1.487       .  S
C1264      C1265   1.409       .  A
C1265      C1266   1.411       .  A
C1265     Br1273   1.928   1_565  S
C1266     Br1277   1.928   1_565  S
C1267      C1268   1.409       .  A
C1267      C1272   1.408       .  A
C1268      C1269   1.410       .  A
C1268     Br1279   1.930       .  S
C1269      C1270   1.415       .  A
C1269     Br1275   1.931       .  S
C1270      C1271   1.416       .  A
C1271      C1272   1.407       .  A
C1271     Br1280   1.932       .  S
C1272     Br1276   1.931       .  S
C1281      C1282   1.413       .  A
C1281      C1286   1.418       .  A
C1282      C1283   1.416       .  A
C1282     Br1294   1.927       .  S
C1283      C1284   1.412       .  A
C1283     Br1298   1.926       .  S
C1284      C1287   1.492       .  S
C1284      C1285   1.407       .  A
C1285      C1286   1.403       .  A
C1285     Br1293   1.934       .  S
C1286     Br1297   1.935       .  S
C1287      C1288   1.410       .  A
C1287      C1292   1.410       .  A
C1288      C1289   1.412       .  A
C1288     Br1299   1.930       .  S
C1289      C1290   1.417       .  A
C1289     Br1295   1.932       .  S
C1290      C1291   1.413       .  A
C1291      C1292   1.410       .  A
C1291     Br1300   1.930       .  S
C1292     Br1296   1.930       .  S
C1301      C1302   1.408       .  A
C1301      C1306   1.411       .  A
C1302      C1303   1.398       .  A
C1302     Br1314   1.935       .  S
C1303      C1304   1.409       .  A
C1303     Br1318   1.930       .  S
C1304      C1307   1.478       .  S
C1304      C1305   1.409       .  A
C1305      C1306   1.410       .  A
C1305     Br1313   1.926   1_565  S
C1306     Br1317   1.929       .  S
C1307      C1308   1.408   1_565  A
C1307      C1312   1.406       .  A
C1308      C1309   1.405       .  A
C1308     Br1319   1.929   1_556  S
C1309      C1310   1.412   1_545  A
C1309     Br1315   1.931   1_556  S
C1310      C1311   1.413       .  A
C1311      C1312   1.405       .  A
C1311     Br1320   1.928       .  S
C1312     Br1316   1.929       .  S
C1321      C1322   1.408       .  A
C1321      C1326   1.409       .  A
C1322      C1323   1.409       .  A
C1322     Br1334   1.928   1_545  S
C1323      C1324   1.411       .  A
C1323     Br1338   1.930   1_545  S
C1324      C1327   1.489       .  S
C1324      C1325   1.410       .  A
C1325      C1326   1.408       .  A
C1325     Br1333   1.927       .  S
C1326     Br1337   1.930       .  S
C1327      C1328   1.410   1_545  A
C1327      C1332   1.406       .  A
C1328      C1329   1.411       .  A
C1328     Br1339   1.929       .  S
C1329      C1330   1.413   1_565  A
C1329     Br1335   1.929       .  S
C1330      C1331   1.420       .  A
C1331      C1332   1.408       .  A
C1331     Br1340   1.935       .  S
C1332     Br1336   1.932       .  S
C1341      C1342   1.410       .  A
C1341      C1346   1.409   1_565  A
C1342      C1343   1.404       .  A
C1342     Br1354   1.930       .  S
C1343      C1344   1.408       .  A
C1343     Br1358   1.930       .  S
C1344      C1347   1.476   1_565  S
C1344      C1345   1.408   1_565  A
C1345      C1346   1.404       .  A
C1345     Br1353   1.930       .  S
C1346     Br1357   1.929       .  S
C1347      C1348   1.408       .  A
C1347      C1352   1.403   1_545  A
C1348      C1349   1.406       .  A
C1348     Br1359   1.930       .  S
C1349      C1350   1.413       .  A
C1349     Br1355   1.932       .  S
C1350      C1351   1.421   1_545  A
C1351      C1352   1.404       .  A
C1351     Br1360   1.934       .  S
C1352     Br1356   1.934       .  S
C1361      C1362   1.413       .  A
C1361      C1366   1.418       .  A
C1362      C1363   1.411       .  A
C1362     Br1374   1.931       .  S
C1363      C1364   1.411       .  A
C1363     Br1378   1.930       .  S
C1364      C1367   1.494       .  S
C1364      C1365   1.408       .  A
C1365      C1366   1.412       .  A
C1365     Br1373   1.930       .  S
C1366     Br1377   1.931       .  S
C1367      C1368   1.411       .  A
C1367      C1372   1.412       .  A
C1368      C1369   1.410       .  A
C1368     Br1379   1.929       .  S
C1369      C1370   1.411       .  A
C1369     Br1375   1.930       .  S
C1370      C1371   1.409       .  A
C1371      C1372   1.411       .  A
C1371     Br1380   1.929       .  S
C1372     Br1376   1.928       .  S
C1381      C1382   1.414       .  A
C1381      C1386   1.414       .  A
C1382      C1383   1.409       .  A
C1382     Br1394   1.931       .  S
C1383      C1384   1.408       .  A
C1383     Br1398   1.929       .  S
C1384      C1387   1.489       .  S
C1384      C1385   1.410       .  A
C1385      C1386   1.410       .  A
C1385     Br1393   1.930       .  S
C1386     Br1397   1.932       .  S
C1387      C1388   1.410       .  A
C1387      C1392   1.407       .  A
C1388      C1389   1.411       .  A
C1388     Br1399   1.930       .  S
C1389      C1390   1.412       .  A
C1389     Br1395   1.930       .  S
C1390      C1391   1.417       .  A
C1391      C1392   1.409       .  A
C1391     Br1400   1.932       .  S
C1392     Br1396   1.931       .  S
C1401      C1402   1.422       .  A
C1401      C1406   1.417       .  A
C1402      C1403   1.410       .  A
C1402     Br1414   1.935       .  S
C1403      C1404   1.407       .  A
C1403     Br1418   1.933       .  S
C1404      C1407   1.498       .  S
C1404      C1405   1.411       .  A
C1405      C1406   1.416       .  A
C1405     Br1413   1.929       .  S
C1406     Br1417   1.929       .  S
C1407      C1408   1.410       .  A
C1407      C1412   1.410       .  A
C1408      C1409   1.413       .  A
C1408     Br1419   1.930       .  S
C1409      C1410   1.415       .  A
C1409     Br1415   1.931       .  S
C1410      C1411   1.417       .  A
C1411      C1412   1.413       .  A
C1411     Br1420   1.932       .  S
C1412     Br1416   1.930       .  S
C1421      C1422   1.411   1_556  A
C1421      C1426   1.411       .  A
C1422      C1423   1.413       .  A
C1422     Br1434   1.929       .  S
C1423      C1424   1.412   1_554  A
C1423     Br1438   1.928       .  S
C1424      C1427   1.497   1_556  S
C1424      C1425   1.411       .  A
C1425      C1426   1.412       .  A
C1425     Br1433   1.929       .  S
C1426     Br1437   1.928       .  S
C1427      C1428   1.406       .  A
C1427      C1432   1.410   1_554  A
C1428      C1429   1.411       .  A
C1428     Br1439   1.933       .  S
C1429      C1430   1.422       .  A
C1429     Br1435   1.933       .  S
C1430      C1431   1.419   1_554  A
C1431      C1432   1.416       .  A
C1431     Br1440   1.930       .  S
C1432     Br1436   1.929       .  S
C1441      C1442   1.412       .  A
C1441      C1446   1.416       .  A
C1442      C1443   1.409       .  A
C1442     Br1454   1.928       .  S
C1443      C1444   1.408       .  A
C1443     Br1458   1.929   1_556  S
C1444      C1447   1.476       .  S
C1444      C1445   1.406       .  A
C1445      C1446   1.400       .  A
C1445     Br1453   1.935       .  S
C1446     Br1457   1.935       .  S
C1447      C1448   1.405       .  A
C1447      C1452   1.403   1_556  A
C1448      C1449   1.408       .  A
C1448     Br1459   1.931       .  S
C1449      C1450   1.421       .  A
C1449     Br1455   1.935       .  S
C1450      C1451   1.425   1_556  A
C1451      C1452   1.403       .  A
C1451     Br1460   1.939       .  S
C1452     Br1456   1.937       .  S
C1461      C1462   1.413       .  A
C1461      C1466   1.414       .  A
C1462      C1463   1.406       .  A
C1462     Br1474   1.929       .  S
C1463      C1464   1.407       .  A
C1463     Br1478   1.931       .  S
C1464      C1467   1.483       .  S
C1464      C1465   1.408       .  A
C1465      C1466   1.408       .  A
C1465     Br1473   1.930       .  S
C1466     Br1477   1.931       .  S
C1467      C1468   1.404       .  A
C1467      C1472   1.409       .  A
C1468      C1469   1.405       .  A
C1468     Br1479   1.934       .  S
C1469      C1470   1.421       .  A
C1469     Br1475   1.936       .  S
C1470      C1471   1.414       .  A
C1471      C1472   1.409       .  A
C1471     Br1480   1.929       .  S
C1472     Br1476   1.929       .  S
C1481      C1482   1.417       .  A
C1481      C1486   1.419       .  A
C1482      C1483   1.409       .  A
C1482     Br1494   1.930       .  S
C1483      C1484   1.408       .  A
C1483     Br1498   1.932       .  S
C1484      C1487   1.491       .  S
C1484      C1485   1.408       .  A
C1485      C1486   1.411       .  A
C1485     Br1493   1.931       .  S
C1486     Br1497   1.932       .  S
C1487      C1488   1.415       .  A
C1487      C1492   1.409       .  A
C1488      C1489   1.411       .  A
C1488     Br1499   1.928       .  S
C1489      C1490   1.406       .  A
C1489     Br1495   1.929       .  S
C1490      C1491   1.411       .  A
C1491      C1492   1.406       .  A
C1491     Br1500   1.932       .  S
C1492     Br1496   1.930       .  S
C1501      C1502   1.420   1_556  A
C1501      C1506   1.423       .  A
C1502      C1503   1.408       .  A
C1502     Br1514   1.934       .  S
C1503      C1504   1.406       .  A
C1503     Br1518   1.932       .  S
C1504      C1507   1.480       .  S
C1504      C1505   1.404   1_554  A
C1505      C1506   1.405       .  A
C1505     Br1513   1.935       .  S
C1506     Br1517   1.936       .  S
C1507      C1508   1.409       .  A
C1507      C1512   1.409       .  A
C1508      C1509   1.404       .  A
C1508     Br1519   1.931       .  S
C1509      C1510   1.410       .  A
C1509     Br1515   1.932       .  S
C1510      C1511   1.411       .  A
C1511      C1512   1.406       .  A
C1511     Br1520   1.932   1_554  S
C1512     Br1516   1.930   1_554  S
C1521      C1522   1.420       .  A
C1521      C1526   1.417       .  A
C1522      C1523   1.406       .  A
C1522     Br1534   1.935       .  S
C1523      C1524   1.405       .  A
C1523     Br1538   1.933       .  S
C1524      C1527   1.483       .  S
C1524      C1525   1.407       .  A
C1525      C1526   1.409       .  A
C1525     Br1533   1.930       .  S
C1526     Br1537   1.932       .  S
C1527      C1528   1.405       .  A
C1527      C1532   1.405       .  A
C1528      C1529   1.408   1_565  A
C1528     Br1539   1.931       .  S
C1529      C1530   1.418       .  A
C1529     Br1535   1.926       .  S
C1530      C1531   1.422       .  A
C1531      C1532   1.407   1_545  A
C1531     Br1540   1.935       .  S
C1532     Br1536   1.934       .  S
C1541      C1542   1.413       .  A
C1541      C1546   1.417       .  A
C1542      C1543   1.413       .  A
C1542     Br1554   1.927       .  S
C1543      C1544   1.410       .  A
C1543     Br1558   1.929       .  S
C1544      C1547   1.488       .  S
C1544      C1545   1.407       .  A
C1545      C1546   1.406       .  A
C1545     Br1553   1.934       .  S
C1546     Br1557   1.930       .  S
C1547      C1548   1.408       .  A
C1547      C1552   1.410       .  A
C1548      C1549   1.405       .  A
C1548     Br1559   1.933       .  S
C1549      C1550   1.416       .  A
C1549     Br1555   1.935       .  S
C1550      C1551   1.412       .  A
C1551      C1552   1.409       .  A
C1551     Br1560   1.929   1_545  S
C1552     Br1556   1.927       .  S
C1561      C1562   1.416       .  A
C1561      C1566   1.416       .  A
C1562      C1563   1.412       .  A
C1562     Br1574   1.930       .  S
C1563      C1564   1.409       .  A
C1563     Br1578   1.929       .  S
C1564      C1567   1.493       .  S
C1564      C1565   1.408       .  A
C1565      C1566   1.410       .  A
C1565     Br1573   1.929       .  S
C1566     Br1577   1.931       .  S
C1567      C1568   1.411       .  A
C1567      C1572   1.408       .  A
C1568      C1569   1.417       .  A
C1568     Br1579   1.926       .  S
C1569      C1570   1.415       .  A
C1569     Br1575   1.927       .  S
C1570      C1571   1.417       .  A
C1571      C1572   1.405       .  A
C1571     Br1580   1.937       .  S
C1572     Br1576   1.931       .  S
C1581      C1582   1.418       .  A
C1581      C1586   1.415       .  A
C1582      C1583   1.411       .  A
C1582     Br1594   1.932       .  S
C1583      C1584   1.408       .  A
C1583     Br1598   1.931       .  S
C1584      C1587   1.502       .  S
C1584      C1585   1.414       .  A
C1585      C1586   1.418       .  A
C1585     Br1593   1.929       .  S
C1586     Br1597   1.929       .  S
C1587      C1588   1.414       .  A
C1587      C1592   1.410       .  A
C1588      C1589   1.416   1_655  A
C1588     Br1599   1.929       .  S
C1589      C1590   1.414       .  A
C1589     Br1595   1.929       .  S
C1590      C1591   1.416       .  A
C1591      C1592   1.412   1_455  A
C1591     Br1600   1.932       .  S
C1592     Br1596   1.930       .  S
C1601      C1602   1.426   1_545  A
C1601      C1606   1.423   1_546  A
C1602      C1603   1.415       .  A
C1602     Br1614   1.934   1_565  S
C1603      C1604   1.407   1_556  A
C1603     Br1618   1.933       .  S
C1604      C1607   1.502       .  S
C1604      C1605   1.408       .  A
C1605      C1606   1.417       .  A
C1605     Br1613   1.930       .  S
C1606     Br1617   1.927   1_565  S
C1607      C1608   1.412       .  A
C1607      C1612   1.408       .  A
C1608      C1609   1.417       .  A
C1608     Br1619   1.926   1_554  S
C1609      C1610   1.415       .  A
C1609     Br1615   1.929       .  S
C1610      C1611   1.422       .  A
C1611      C1612   1.412       .  A
C1611     Br1620   1.935       .  S
C1612     Br1616   1.933       .  S
C1621      C1622   1.412       .  A
C1621      C1626   1.412       .  A
C1622      C1623   1.405       .  A
C1622     Br1634   1.934       .  S
C1623      C1624   1.410       .  A
C1623     Br1638   1.931       .  S
C1624      C1627   1.480       .  S
C1624      C1625   1.406       .  A
C1625      C1626   1.406       .  A
C1625     Br1633   1.929   1_546  S
C1626     Br1637   1.930   1_556  S
C1627      C1628   1.407       .  A
C1627      C1632   1.407       .  A
C1628      C1629   1.406       .  A
C1628     Br1639   1.933   1_556  S
C1629      C1630   1.417       .  A
C1629     Br1635   1.932   1_556  S
C1630      C1631   1.411       .  A
C1631      C1632   1.406       .  A
C1631     Br1640   1.930   1_545  S
C1632     Br1636   1.927   1_545  S
C1641      C1642   1.426       .  A
C1641      C1646   1.418       .  A
C1642      C1643   1.412       .  A
C1642     Br1654   1.939   1_556  S
C1643      C1644   1.410       .  A
C1643     Br1658   1.936   1_556  S
C1644      C1647   1.514       .  S
C1644      C1645   1.417       .  A
C1645      C1646   1.425       .  A
C1645     Br1653   1.926       .  S
C1646     Br1657   1.928       .  S
C1647      C1648   1.413       .  A
C1647      C1652   1.414   1_556  A
C1648      C1649   1.418       .  A
C1648     Br1659   1.930       .  S
C1649      C1650   1.419       .  A
C1649     Br1655   1.930       .  S
C1650      C1651   1.414   1_556  A
C1651      C1652   1.419       .  A
C1651     Br1660   1.926       .  S
C1652     Br1656   1.927       .  S
C1661      C1662   1.411       .  A
C1661      C1666   1.407       .  A
C1662      C1663   1.406       .  A
C1662     Br1674   1.928       .  S
C1663      C1664   1.409       .  A
C1663     Br1678   1.932       .  S
C1664      C1667   1.486       .  S
C1664      C1665   1.411       .  A
C1665      C1666   1.410       .  A
C1665     Br1673   1.928       .  S
C1666     Br1677   1.926       .  S
C1667      C1668   1.410       .  A
C1667      C1672   1.400       .  A
C1668      C1669   1.416       .  A
C1668     Br1679   1.930       .  S
C1669      C1670   1.423       .  A
C1669     Br1675   1.933       .  S
C1670      C1671   1.426       .  A
C1671      C1672   1.402       .  A
C1671     Br1680   1.938       .  S
C1672     Br1676   1.935       .  S
C1681      C1682   1.416       .  A
C1681      C1686   1.415       .  A
C1682      C1683   1.408       .  A
C1682     Br1694   1.932       .  S
C1683      C1684   1.407       .  A
C1683     Br1698   1.931       .  S
C1684      C1687   1.488       .  S
C1684      C1685   1.409       .  A
C1685      C1686   1.412       .  A
C1685     Br1693   1.930       .  S
C1686     Br1697   1.926       .  S
C1687      C1688   1.407       .  A
C1687      C1692   1.412       .  A
C1688      C1689   1.404       .  A
C1688     Br1699   1.931       .  S
C1689      C1690   1.413       .  A
C1689     Br1695   1.933       .  S
C1690      C1691   1.411       .  A
C1691      C1692   1.413       .  A
C1691     Br1700   1.928       .  S
C1692     Br1696   1.928       .  S
C1701      C1702   1.412       .  A
C1701      C1706   1.408   1_556  A
C1702      C1703   1.410       .  A
C1702     Br1714   1.930       .  S
C1703      C1704   1.410       .  A
C1703     Br1718   1.930       .  S
C1704      C1707   1.490   1_556  S
C1704      C1705   1.411   1_556  A
C1705      C1706   1.410       .  A
C1705     Br1713   1.928       .  S
C1706     Br1717   1.929       .  S
C1707      C1708   1.410   1_554  A
C1707      C1712   1.408       .  A
C1708      C1709   1.411   1_655  A
C1708     Br1719   1.928       .  S
C1709      C1710   1.413   1_556  A
C1709     Br1715   1.931       .  S
C1710      C1711   1.417   1_455  A
C1711      C1712   1.408       .  A
C1711     Br1720   1.934       .  S
C1712     Br1716   1.931       .  S
